./Common.sh: line 3: /net/bigtemp/ml2au/AxBenchResults/Multiple16: Is a directory

1
--cpu-type=detailed --caches --l2cache  --l1d_size=32kB --l2_size=512kB  --cacheline_size=64 --mem-size=4GB --num-cpus=8
2
--cpu-type=detailed --caches --l2cache  --l1d_size=32kB --l2_size=1MB  --cacheline_size=64  --mem-size=4GB --num-cpus=8
3
--cpu-type=detailed --caches --l2cache  --l1d_size=32kB --l2_size=2MB  --cacheline_size=64  --mem-size=4GB --num-cpus=8
4
--cpu-type=detailed --caches --l2cache  --l1d_size=32kB --l2_size=4MB  --cacheline_size=64  --mem-size=4GB --num-cpus=8
5
--cpu-type=detailed --caches --l2cache  --l1d_size=32kB --l2_size=8MB  --cacheline_size=64  --mem-size=4GB --num-cpus=8
6
--cpu-type=detailed --caches --l2cache  --l1d_size=32kB --l2_size=16MB  --cacheline_size=64  --mem-size=4GB --num-cpus=8
7
--cpu-type=detailed --caches --l2cache  --l1d_size=32kB --l2_size=32MB  --cacheline_size=64  --mem-size=4GB --num-cpus=8
8
--cpu-type=detailed --caches --l2cache  --l1d_size=32kB --l2_size=64MB  --cacheline_size=64  --mem-size=4GB --num-cpus=8
gem5 Simulator System.  http://gem5.org
gem5 is copyrighted software; use the --copyright option for details.

gem5 compiled Jan 16 2017 16:32:23
gem5 started Feb 11 2017 17:36:40
gem5 executing on falcon7, pid 15957
command line: build/X86/gem5.opt -d /bigtemp/ml2au/AxBenchResults/Multiple16/sobel/NoOutIOC8_1000K configs/example/se.py --cpu-type=detailed --caches --l2cache --l1d_size=32kB --l2_size=64MB --cacheline_size=64 --mem-size=4GB --num-cpus=8 -c '/bigtemp/ml2au/AxBenchResults/binNoOutIO/sobel;/bigtemp/ml2au/AxBenchResults/binNoOutIO/sobel;/bigtemp/ml2au/AxBenchResults/binNoOutIO/sobel;/bigtemp/ml2au/AxBenchResults/binNoOutIO/sobel;/bigtemp/ml2au/AxBenchResults/binNoOutIO/sobel;/bigtemp/ml2au/AxBenchResults/binNoOutIO/sobel;/bigtemp/ml2au/AxBenchResults/binNoOutIO/sobel;/bigtemp/ml2au/AxBenchResults/binNoOutIO/sobel' '--options=options1t;/net/bigtemp/ml2au/AxBench/accept-apps/sobel/i1.pgm;/net/bigtemp/ml2au/AxBench/accept-apps/sobel/i1.pgm;/net/bigtemp/ml2au/AxBench/accept-apps/sobel/i1.pgm;/net/bigtemp/ml2au/AxBench/accept-apps/sobel/i1.pgm;/net/bigtemp/ml2au/AxBench/accept-apps/sobel/i1.pgm;/net/bigtemp/ml2au/AxBench/accept-apps/sobel/i1.pgm;/net/bigtemp/ml2au/AxBench/accept-apps/sobel/i1.pgm'

Global frequency set at 1000000000000 ticks per second
warn: DRAM device capacity (8192 Mbytes) does not match the address range assigned (4096 Mbytes)
gem5 Simulator System.  http://gem5.org
gem5 is copyrighted software; use the --copyright option for details.

gem5 compiled Jan 16 2017 16:32:23
gem5 started Feb 11 2017 17:36:39
gem5 executing on falcon7, pid 15953
command line: build/X86/gem5.opt -d /bigtemp/ml2au/AxBenchResults/Multiple16/sobel/NoOutIOC4_1000K configs/example/se.py --cpu-type=detailed --caches --l2cache --l1d_size=32kB --l2_size=4MB --cacheline_size=64 --mem-size=4GB --num-cpus=8 -c '/bigtemp/ml2au/AxBenchResults/binNoOutIO/sobel;/bigtemp/ml2au/AxBenchResults/binNoOutIO/sobel;/bigtemp/ml2au/AxBenchResults/binNoOutIO/sobel;/bigtemp/ml2au/AxBenchResults/binNoOutIO/sobel;/bigtemp/ml2au/AxBenchResults/binNoOutIO/sobel;/bigtemp/ml2au/AxBenchResults/binNoOutIO/sobel;/bigtemp/ml2au/AxBenchResults/binNoOutIO/sobel;/bigtemp/ml2au/AxBenchResults/binNoOutIO/sobel' '--options=options1t;/net/bigtemp/ml2au/AxBench/accept-apps/sobel/i1.pgm;/net/bigtemp/ml2au/AxBench/accept-apps/sobel/i1.pgm;/net/bigtemp/ml2au/AxBench/accept-apps/sobel/i1.pgm;/net/bigtemp/ml2au/AxBench/accept-apps/sobel/i1.pgm;/net/bigtemp/ml2au/AxBench/accept-apps/sobel/i1.pgm;/net/bigtemp/ml2au/AxBench/accept-apps/sobel/i1.pgm;/net/bigtemp/ml2au/AxBench/accept-apps/sobel/i1.pgm'

Global frequency set at 1000000000000 ticks per second
warn: DRAM device capacity (8192 Mbytes) does not match the address range assigned (4096 Mbytes)
gem5 Simulator System.  http://gem5.org
gem5 is copyrighted software; use the --copyright option for details.

gem5 compiled Jan 16 2017 16:32:23
gem5 started Feb 11 2017 17:36:39
gem5 executing on falcon7, pid 15954
command line: build/X86/gem5.opt -d /bigtemp/ml2au/AxBenchResults/Multiple16/sobel/NoOutIOC5_1000K configs/example/se.py --cpu-type=detailed --caches --l2cache --l1d_size=32kB --l2_size=8MB --cacheline_size=64 --mem-size=4GB --num-cpus=8 -c '/bigtemp/ml2au/AxBenchResults/binNoOutIO/sobel;/bigtemp/ml2au/AxBenchResults/binNoOutIO/sobel;/bigtemp/ml2au/AxBenchResults/binNoOutIO/sobel;/bigtemp/ml2au/AxBenchResults/binNoOutIO/sobel;/bigtemp/ml2au/AxBenchResults/binNoOutIO/sobel;/bigtemp/ml2au/AxBenchResults/binNoOutIO/sobel;/bigtemp/ml2au/AxBenchResults/binNoOutIO/sobel;/bigtemp/ml2au/AxBenchResults/binNoOutIO/sobel' '--options=options1t;/net/bigtemp/ml2au/AxBench/accept-apps/sobel/i1.pgm;/net/bigtemp/ml2au/AxBench/accept-apps/sobel/i1.pgm;/net/bigtemp/ml2au/AxBench/accept-apps/sobel/i1.pgm;/net/bigtemp/ml2au/AxBench/accept-apps/sobel/i1.pgm;/net/bigtemp/ml2au/AxBench/accept-apps/sobel/i1.pgm;/net/bigtemp/ml2au/AxBench/accept-apps/sobel/i1.pgm;/net/bigtemp/ml2au/AxBench/accept-apps/sobel/i1.pgm'

Global frequency set at 1000000000000 ticks per second
warn: DRAM device capacity (8192 Mbytes) does not match the address range assigned (4096 Mbytes)
gem5 Simulator System.  http://gem5.org
gem5 is copyrighted software; use the --copyright option for details.

gem5 compiled Jan 16 2017 16:32:23
gem5 started Feb 11 2017 17:36:39
gem5 executing on falcon7, pid 15952
command line: build/X86/gem5.opt -d /bigtemp/ml2au/AxBenchResults/Multiple16/sobel/NoOutIOC3_1000K configs/example/se.py --cpu-type=detailed --caches --l2cache --l1d_size=32kB --l2_size=2MB --cacheline_size=64 --mem-size=4GB --num-cpus=8 -c '/bigtemp/ml2au/AxBenchResults/binNoOutIO/sobel;/bigtemp/ml2au/AxBenchResults/binNoOutIO/sobel;/bigtemp/ml2au/AxBenchResults/binNoOutIO/sobel;/bigtemp/ml2au/AxBenchResults/binNoOutIO/sobel;/bigtemp/ml2au/AxBenchResults/binNoOutIO/sobel;/bigtemp/ml2au/AxBenchResults/binNoOutIO/sobel;/bigtemp/ml2au/AxBenchResults/binNoOutIO/sobel;/bigtemp/ml2au/AxBenchResults/binNoOutIO/sobel' '--options=options1t;/net/bigtemp/ml2au/AxBench/accept-apps/sobel/i1.pgm;/net/bigtemp/ml2au/AxBench/accept-apps/sobel/i1.pgm;/net/bigtemp/ml2au/AxBench/accept-apps/sobel/i1.pgm;/net/bigtemp/ml2au/AxBench/accept-apps/sobel/i1.pgm;/net/bigtemp/ml2au/AxBench/accept-apps/sobel/i1.pgm;/net/bigtemp/ml2au/AxBench/accept-apps/sobel/i1.pgm;/net/bigtemp/ml2au/AxBench/accept-apps/sobel/i1.pgm'

Global frequency set at 1000000000000 ticks per second
warn: DRAM device capacity (8192 Mbytes) does not match the address range assigned (4096 Mbytes)
gem5 Simulator System.  http://gem5.org
gem5 is copyrighted software; use the --copyright option for details.

gem5 compiled Jan 16 2017 16:32:23
gem5 started Feb 11 2017 17:36:40
gem5 executing on falcon7, pid 15951
command line: build/X86/gem5.opt -d /bigtemp/ml2au/AxBenchResults/Multiple16/sobel/NoOutIOC2_1000K configs/example/se.py --cpu-type=detailed --caches --l2cache --l1d_size=32kB --l2_size=1MB --cacheline_size=64 --mem-size=4GB --num-cpus=8 -c '/bigtemp/ml2au/AxBenchResults/binNoOutIO/sobel;/bigtemp/ml2au/AxBenchResults/binNoOutIO/sobel;/bigtemp/ml2au/AxBenchResults/binNoOutIO/sobel;/bigtemp/ml2au/AxBenchResults/binNoOutIO/sobel;/bigtemp/ml2au/AxBenchResults/binNoOutIO/sobel;/bigtemp/ml2au/AxBenchResults/binNoOutIO/sobel;/bigtemp/ml2au/AxBenchResults/binNoOutIO/sobel;/bigtemp/ml2au/AxBenchResults/binNoOutIO/sobel' '--options=options1t;/net/bigtemp/ml2au/AxBench/accept-apps/sobel/i1.pgm;/net/bigtemp/ml2au/AxBench/accept-apps/sobel/i1.pgm;/net/bigtemp/ml2au/AxBench/accept-apps/sobel/i1.pgm;/net/bigtemp/ml2au/AxBench/accept-apps/sobel/i1.pgm;/net/bigtemp/ml2au/AxBench/accept-apps/sobel/i1.pgm;/net/bigtemp/ml2au/AxBench/accept-apps/sobel/i1.pgm;/net/bigtemp/ml2au/AxBench/accept-apps/sobel/i1.pgm'

Global frequency set at 1000000000000 ticks per second
warn: DRAM device capacity (8192 Mbytes) does not match the address range assigned (4096 Mbytes)
gem5 Simulator System.  http://gem5.org
gem5 is copyrighted software; use the --copyright option for details.

gem5 compiled Jan 16 2017 16:32:23
gem5 started Feb 11 2017 17:36:39
gem5 executing on falcon7, pid 15956
command line: build/X86/gem5.opt -d /bigtemp/ml2au/AxBenchResults/Multiple16/sobel/NoOutIOC7_1000K configs/example/se.py --cpu-type=detailed --caches --l2cache --l1d_size=32kB --l2_size=32MB --cacheline_size=64 --mem-size=4GB --num-cpus=8 -c '/bigtemp/ml2au/AxBenchResults/binNoOutIO/sobel;/bigtemp/ml2au/AxBenchResults/binNoOutIO/sobel;/bigtemp/ml2au/AxBenchResults/binNoOutIO/sobel;/bigtemp/ml2au/AxBenchResults/binNoOutIO/sobel;/bigtemp/ml2au/AxBenchResults/binNoOutIO/sobel;/bigtemp/ml2au/AxBenchResults/binNoOutIO/sobel;/bigtemp/ml2au/AxBenchResults/binNoOutIO/sobel;/bigtemp/ml2au/AxBenchResults/binNoOutIO/sobel' '--options=options1t;/net/bigtemp/ml2au/AxBench/accept-apps/sobel/i1.pgm;/net/bigtemp/ml2au/AxBench/accept-apps/sobel/i1.pgm;/net/bigtemp/ml2au/AxBench/accept-apps/sobel/i1.pgm;/net/bigtemp/ml2au/AxBench/accept-apps/sobel/i1.pgm;/net/bigtemp/ml2au/AxBench/accept-apps/sobel/i1.pgm;/net/bigtemp/ml2au/AxBench/accept-apps/sobel/i1.pgm;/net/bigtemp/ml2au/AxBench/accept-apps/sobel/i1.pgm'

Global frequency set at 1000000000000 ticks per second
warn: DRAM device capacity (8192 Mbytes) does not match the address range assigned (4096 Mbytes)
warn: Sockets disabled, not accepting gdb connections
warn: Sockets disabled, not accepting gdb connections
warn: Sockets disabled, not accepting gdb connections
warn: Sockets disabled, not accepting gdb connections
warn: Sockets disabled, not accepting gdb connections
warn: Sockets disabled, not accepting gdb connections
gem5 Simulator System.  http://gem5.org
gem5 is copyrighted software; use the --copyright option for details.

gem5 compiled Jan 16 2017 16:32:23
gem5 started Feb 11 2017 17:36:39
gem5 executing on falcon7, pid 15950
command line: build/X86/gem5.opt -d /bigtemp/ml2au/AxBenchResults/Multiple16/sobel/NoOutIOC1_1000K configs/example/se.py --cpu-type=detailed --caches --l2cache --l1d_size=32kB --l2_size=512kB --cacheline_size=64 --mem-size=4GB --num-cpus=8 -c '/bigtemp/ml2au/AxBenchResults/binNoOutIO/sobel;/bigtemp/ml2au/AxBenchResults/binNoOutIO/sobel;/bigtemp/ml2au/AxBenchResults/binNoOutIO/sobel;/bigtemp/ml2au/AxBenchResults/binNoOutIO/sobel;/bigtemp/ml2au/AxBenchResults/binNoOutIO/sobel;/bigtemp/ml2au/AxBenchResults/binNoOutIO/sobel;/bigtemp/ml2au/AxBenchResults/binNoOutIO/sobel;/bigtemp/ml2au/AxBenchResults/binNoOutIO/sobel' '--options=options1t;/net/bigtemp/ml2au/AxBench/accept-apps/sobel/i1.pgm;/net/bigtemp/ml2au/AxBench/accept-apps/sobel/i1.pgm;/net/bigtemp/ml2au/AxBench/accept-apps/sobel/i1.pgm;/net/bigtemp/ml2au/AxBench/accept-apps/sobel/i1.pgm;/net/bigtemp/ml2au/AxBench/accept-apps/sobel/i1.pgm;/net/bigtemp/ml2au/AxBench/accept-apps/sobel/i1.pgm;/net/bigtemp/ml2au/AxBench/accept-apps/sobel/i1.pgm'

Global frequency set at 1000000000000 ticks per second
warn: DRAM device capacity (8192 Mbytes) does not match the address range assigned (4096 Mbytes)
gem5 Simulator System.  http://gem5.org
gem5 is copyrighted software; use the --copyright option for details.

gem5 compiled Jan 16 2017 16:32:23
gem5 started Feb 11 2017 17:36:39
gem5 executing on falcon7, pid 15955
command line: build/X86/gem5.opt -d /bigtemp/ml2au/AxBenchResults/Multiple16/sobel/NoOutIOC6_1000K configs/example/se.py --cpu-type=detailed --caches --l2cache --l1d_size=32kB --l2_size=16MB --cacheline_size=64 --mem-size=4GB --num-cpus=8 -c '/bigtemp/ml2au/AxBenchResults/binNoOutIO/sobel;/bigtemp/ml2au/AxBenchResults/binNoOutIO/sobel;/bigtemp/ml2au/AxBenchResults/binNoOutIO/sobel;/bigtemp/ml2au/AxBenchResults/binNoOutIO/sobel;/bigtemp/ml2au/AxBenchResults/binNoOutIO/sobel;/bigtemp/ml2au/AxBenchResults/binNoOutIO/sobel;/bigtemp/ml2au/AxBenchResults/binNoOutIO/sobel;/bigtemp/ml2au/AxBenchResults/binNoOutIO/sobel' '--options=options1t;/net/bigtemp/ml2au/AxBench/accept-apps/sobel/i1.pgm;/net/bigtemp/ml2au/AxBench/accept-apps/sobel/i1.pgm;/net/bigtemp/ml2au/AxBench/accept-apps/sobel/i1.pgm;/net/bigtemp/ml2au/AxBench/accept-apps/sobel/i1.pgm;/net/bigtemp/ml2au/AxBench/accept-apps/sobel/i1.pgm;/net/bigtemp/ml2au/AxBench/accept-apps/sobel/i1.pgm;/net/bigtemp/ml2au/AxBench/accept-apps/sobel/i1.pgm'

Global frequency set at 1000000000000 ticks per second
warn: DRAM device capacity (8192 Mbytes) does not match the address range assigned (4096 Mbytes)
warn: ClockedObject: More than one power state change request encountered within the same simulation tick
warn: ClockedObject: More than one power state change request encountered within the same simulation tick
warn: ClockedObject: More than one power state change request encountered within the same simulation tick
warn: ClockedObject: More than one power state change request encountered within the same simulation tick
warn: ClockedObject: More than one power state change request encountered within the same simulation tick
warn: ClockedObject: More than one power state change request encountered within the same simulation tick
warn: Sockets disabled, not accepting gdb connections
warn: Sockets disabled, not accepting gdb connections
warn: ClockedObject: More than one power state change request encountered within the same simulation tick
warn: ClockedObject: More than one power state change request encountered within the same simulation tick
warn: ClockedObject: More than one power state change request encountered within the same simulation tick
warn: ClockedObject: More than one power state change request encountered within the same simulation tick
warn: ClockedObject: More than one power state change request encountered within the same simulation tick
warn: ClockedObject: More than one power state change request encountered within the same simulation tick
warn: ClockedObject: More than one power state change request encountered within the same simulation tick
warn: ClockedObject: More than one power state change request encountered within the same simulation tick
warn: ClockedObject: More than one power state change request encountered within the same simulation tick
warn: ClockedObject: More than one power state change request encountered within the same simulation tick
warn: ClockedObject: More than one power state change request encountered within the same simulation tick
warn: ClockedObject: More than one power state change request encountered within the same simulation tick
warn: ClockedObject: More than one power state change request encountered within the same simulation tick
warn: ClockedObject: More than one power state change request encountered within the same simulation tick
warn: ClockedObject: More than one power state change request encountered within the same simulation tick
warn: ClockedObject: More than one power state change request encountered within the same simulation tick
warn: ClockedObject: More than one power state change request encountered within the same simulation tick
warn: ClockedObject: More than one power state change request encountered within the same simulation tick
warn: ClockedObject: More than one power state change request encountered within the same simulation tick
warn: ClockedObject: More than one power state change request encountered within the same simulation tick
warn: ClockedObject: More than one power state change request encountered within the same simulation tick
warn: ClockedObject: More than one power state change request encountered within the same simulation tick
warn: ClockedObject: More than one power state change request encountered within the same simulation tick
warn: ClockedObject: More than one power state change request encountered within the same simulation tick
warn: ClockedObject: More than one power state change request encountered within the same simulation tick
warn: ClockedObject: More than one power state change request encountered within the same simulation tick
warn: ClockedObject: More than one power state change request encountered within the same simulation tick
warn: ClockedObject: More than one power state change request encountered within the same simulation tick
warn: ClockedObject: More than one power state change request encountered within the same simulation tick
warn: ClockedObject: More than one power state change request encountered within the same simulation tick
warn: ClockedObject: More than one power state change request encountered within the same simulation tick
warn: ClockedObject: More than one power state change request encountered within the same simulation tick
warn: ClockedObject: More than one power state change request encountered within the same simulation tick
warn: ClockedObject: More than one power state change request encountered within the same simulation tick
warn: ClockedObject: More than one power state change request encountered within the same simulation tick
warn: ClockedObject: More than one power state change request encountered within the same simulation tick
warn: ClockedObject: More than one power state change request encountered within the same simulation tick
warn: ClockedObject: More than one power state change request encountered within the same simulation tick
warn: ClockedObject: More than one power state change request encountered within the same simulation tick
warn: ClockedObject: More than one power state change request encountered within the same simulation tick
warn: ClockedObject: More than one power state change request encountered within the same simulation tick
warn: ClockedObject: More than one power state change request encountered within the same simulation tick
warn: ClockedObject: More than one power state change request encountered within the same simulation tick
warn: ClockedObject: More than one power state change request encountered within the same simulation tick
warn: ClockedObject: More than one power state change request encountered within the same simulation tick
warn: ClockedObject: More than one power state change request encountered within the same simulation tick
warn: ClockedObject: More than one power state change request encountered within the same simulation tick
warn: ClockedObject: More than one power state change request encountered within the same simulation tick
warn: ClockedObject: More than one power state change request encountered within the same simulation tick
warn: ClockedObject: More than one power state change request encountered within the same simulation tick
warn: ClockedObject: More than one power state change request encountered within the same simulation tick
warn: ClockedObject: More than one power state change request encountered within the same simulation tick
warn: ClockedObject: More than one power state change request encountered within the same simulation tick
warn: ClockedObject: More than one power state change request encountered within the same simulation tick
warn: ClockedObject: More than one power state change request encountered within the same simulation tick
warn: ClockedObject: More than one power state change request encountered within the same simulation tick
warn: ClockedObject: More than one power state change request encountered within the same simulation tick
warn: ClockedObject: More than one power state change request encountered within the same simulation tick
**** REAL SIMULATION ****
info: Entering event queue @ 0.  Starting simulation...
warn: x86 cpuid family 0x0000: unimplemented function 7
warn: x86 cpuid family 0x0000: unimplemented function 7
warn: x86 cpuid family 0x0000: unimplemented function 7
warn: x86 cpuid family 0x0000: unimplemented function 7
warn: x86 cpuid family 0x0000: unimplemented function 7
warn: x86 cpuid family 0x0000: unimplemented function 7
warn: x86 cpuid family 0x0000: unimplemented function 7
warn: x86 cpuid family 0x0000: unimplemented function 7
warn: readlink() called on '/proc/self/exe' may yield unexpected results in various settings.
      Returning '/net/bigtemp/ml2au/AxBenchResults/binNoOutIO/sobel'
info: Increasing stack size by one page.
info: Increasing stack size by one page.
info: Increasing stack size by one page.
info: Increasing stack size by one page.
info: Increasing stack size by one page.
info: Increasing stack size by one page.
info: Increasing stack size by one page.
info: Increasing stack size by one page.
warn: ignoring syscall access(...)
warn: ignoring syscall access(...)
warn: ignoring syscall access(...)
warn: ignoring syscall access(...)
warn: ignoring syscall access(...)
warn: ignoring syscall access(...)
warn: ignoring syscall access(...)
warn: ignoring syscall access(...)
**** REAL SIMULATION ****
info: Entering event queue @ 0.  Starting simulation...
**** REAL SIMULATION ****
info: Entering event queue @ 0.  Starting simulation...
warn: x86 cpuid family 0x0000: unimplemented function 7
warn: x86 cpuid family 0x0000: unimplemented function 7
warn: x86 cpuid family 0x0000: unimplemented function 7
warn: x86 cpuid family 0x0000: unimplemented function 7
warn: x86 cpuid family 0x0000: unimplemented function 7
warn: x86 cpuid family 0x0000: unimplemented function 7
warn: x86 cpuid family 0x0000: unimplemented function 7
warn: x86 cpuid family 0x0000: unimplemented function 7


warn: x86 cpuid family 0x0000: unimplemented function 7
warn: x86 cpuid family 0x0000: unimplemented function 7
warn: x86 cpuid family 0x0000: unimplemented function 7

warn: x86 cpuid family 0x0000: unimplemented function 7
warn: x86 cpuid family 0x0000: unimplemented function 7
warn: x86 cpuid family 0x0000: unimplemented function 7

warn: x86 cpuid family 0x0000: unimplemented function 7
warn: x86 cpuid family 0x0000: unimplemented function 7

warn: readlink() called on '/proc/self/exe' may yield unexpected results in various settings.
      Returning '/net/bigtemp/ml2au/AxBenchResults/binNoOutIO/sobel'
info: Increasing stack size by one page.

info: Increasing stack size by one page.
info: Increasing stack size by one page.
info: Increasing stack size by one page.
info: Increasing stack size by one page.
info: Increasing stack size by one page.
info: Increasing stack size by one page.
info: Increasing stack size by one page.

warn: readlink() called on '/proc/self/exe' may yield unexpected results in various settings.
      Returning '/net/bigtemp/ml2au/AxBenchResults/binNoOutIO/sobel'
info: Increasing stack size by one page.
info: Increasing stack size by one page.
info: Increasing stack size by one page.
info: Increasing stack size by one page.
info: Increasing stack size by one page.
info: Increasing stack size by one page.
info: Increasing stack size by one page.
info: Increasing stack size by one page.
-----------------------------------------------------
-----------------------------------------------------
-----------------------------------------------------
-----------------------------------------------------
-----------------------------------------------------
Monochromatic image file input routine 
Monochromatic image file input routine 
Monochromatic image file input routine 
Monochromatic image file input routine 
Monochromatic image file input routine 
-----------------------------------------------------
-----------------------------------------------------
-----------------------------------------------------
-----------------------------------------------------
-----------------------------------------------------
-----------------------------------------------------
-----------------------------------------------------





**** REAL SIMULATION ****
info: Entering event queue @ 0.  Starting simulation...

Monochromatic image file input routine 
     Only pgm binary file is acceptable
     Only pgm binary file is acceptable
     Only pgm binary file is acceptable

     Only pgm binary file is acceptable
     Only pgm binary file is acceptable

Monochromatic image file input routine 



-----------------------------------------------------

-----------------------------------------------------

     Only pgm binary file is acceptable

     Only pgm binary file is acceptable

warn: x86 cpuid family 0x0000: unimplemented function 7
warn: x86 cpuid family 0x0000: unimplemented function 7
warn: x86 cpuid family 0x0000: unimplemented function 7
-----------------------------------------------------
warn: x86 cpuid family 0x0000: unimplemented function 7
warn: x86 cpuid family 0x0000: unimplemented function 7
warn: x86 cpuid family 0x0000: unimplemented function 7
warn: x86 cpuid family 0x0000: unimplemented function 7
warn: x86 cpuid family 0x0000: unimplemented function 7
warn: ignoring syscall access(...)
warn: ignoring syscall access(...)
warn: ignoring syscall access(...)
warn: ignoring syscall access(...)
warn: ignoring syscall access(...)
Monochromatic image file input routine 
warn: ignoring syscall access(...)
**** REAL SIMULATION ****
info: Entering event queue @ 0.  Starting simulation...
-----------------------------------------------------

     Only pgm binary file is acceptable

warn: ignoring syscall access(...)
warn: ignoring syscall access(...)
warn: ignoring syscall access(...)
warn: ignoring syscall access(...)
warn: ignoring syscall access(...)
warn: ignoring syscall access(...)
warn: ignoring syscall access(...)
warn: ignoring syscall access(...)
warn: ignoring syscall access(...)
warn: readlink() called on '/proc/self/exe' may yield unexpected results in various settings.
      Returning '/net/bigtemp/ml2au/AxBenchResults/binNoOutIO/sobel'
info: Increasing stack size by one page.
info: Increasing stack size by one page.
info: Increasing stack size by one page.
info: Increasing stack size by one page.
info: Increasing stack size by one page.
info: Increasing stack size by one page.
info: Increasing stack size by one page.
info: Increasing stack size by one page.
warn: x86 cpuid family 0x0000: unimplemented function 7
warn: ignoring syscall access(...)
warn: x86 cpuid family 0x0000: unimplemented function 7
warn: x86 cpuid family 0x0000: unimplemented function 7
warn: x86 cpuid family 0x0000: unimplemented function 7
warn: x86 cpuid family 0x0000: unimplemented function 7
warn: x86 cpuid family 0x0000: unimplemented function 7
warn: x86 cpuid family 0x0000: unimplemented function 7
warn: x86 cpuid family 0x0000: unimplemented function 7
**** REAL SIMULATION ****
info: Entering event queue @ 0.  Starting simulation...
     The file doesn't exist!

warn: readlink() called on '/proc/self/exe' may yield unexpected results in various settings.
      Returning '/net/bigtemp/ml2au/AxBenchResults/binNoOutIO/sobel'
info: Increasing stack size by one page.
info: Increasing stack size by one page.
info: Increasing stack size by one page.
info: Increasing stack size by one page.
info: Increasing stack size by one page.
info: Increasing stack size by one page.
info: Increasing stack size by one page.
info: Increasing stack size by one page.





warn: x86 cpuid family 0x0000: unimplemented function 7
warn: x86 cpuid family 0x0000: unimplemented function 7
warn: x86 cpuid family 0x0000: unimplemented function 7
warn: x86 cpuid family 0x0000: unimplemented function 7
warn: x86 cpuid family 0x0000: unimplemented function 7
warn: x86 cpuid family 0x0000: unimplemented function 7
warn: x86 cpuid family 0x0000: unimplemented function 7
warn: x86 cpuid family 0x0000: unimplemented function 7








-----------------------------------------------------
warn: readlink() called on '/proc/self/exe' may yield unexpected results in various settings.
      Returning '/net/bigtemp/ml2au/AxBenchResults/binNoOutIO/sobel'
info: Increasing stack size by one page.

info: Increasing stack size by one page.
-----------------------------------------------------
info: Increasing stack size by one page.
info: Increasing stack size by one page.
info: Increasing stack size by one page.
info: Increasing stack size by one page.
info: Increasing stack size by one page.
-----------------------------------------------------
info: Increasing stack size by one page.
-----------------------------------------------------
-----------------------------------------------------

-----------------------------------------------------
-----------------------------------------------------
warn: ignoring syscall access(...)
-----------------------------------------------------

warn: ignoring syscall access(...)
-----------------------------------------------------
warn: ignoring syscall access(...)

-----------------------------------------------------
warn: ignoring syscall access(...)
Monochromatic image file input routine 
warn: ignoring syscall access(...)
**** REAL SIMULATION ****
info: Entering event queue @ 0.  Starting simulation...
Monochromatic image file input routine 
warn: ignoring syscall access(...)
Monochromatic image file input routine 
Monochromatic image file input routine 
Monochromatic image file input routine 



-----------------------------------------------------
Monochromatic image file input routine 
-----------------------------------------------------
warn: ignoring syscall access(...)
-----------------------------------------------------
Monochromatic image file input routine 
-----------------------------------------------------
Monochromatic image file input routine 
-----------------------------------------------------
Monochromatic image file input routine 
-----------------------------------------------------

Monochromatic image file input routine 
-----------------------------------------------------

-----------------------------------------------------


-----------------------------------------------------


-----------------------------------------------------
-----------------------------------------------------
-----------------------------------------------------
warn: ignoring syscall access(...)
-----------------------------------------------------

-----------------------------------------------------
Monochromatic image file input routine 

     Only pgm binary file is acceptable
     Only pgm binary file is acceptable

     Only pgm binary file is acceptable

     Image width = 512, Image height = 512


warn: ignoring syscall access(...)

     Only pgm binary file is acceptable
warn: ignoring syscall access(...)
warn: x86 cpuid family 0x0000: unimplemented function 7
warn: ignoring syscall access(...)
     Only pgm binary file is acceptable
warn: x86 cpuid family 0x0000: unimplemented function 7
warn: ignoring syscall access(...)
warn: x86 cpuid family 0x0000: unimplemented function 7
warn: ignoring syscall access(...)
warn: x86 cpuid family 0x0000: unimplemented function 7
warn: x86 cpuid family 0x0000: unimplemented function 7
warn: x86 cpuid family 0x0000: unimplemented function 7
warn: x86 cpuid family 0x0000: unimplemented function 7
warn: x86 cpuid family 0x0000: unimplemented function 7

**** REAL SIMULATION ****
info: Entering event queue @ 0.  Starting simulation...

Monochromatic image file input routine 
warn: ignoring syscall access(...)

Monochromatic image file input routine 
     Image width = 512, Image height = 512
     Only pgm binary file is acceptable


     Only pgm binary file is acceptable
     Only pgm binary file is acceptable
-----------------------------------------------------

     Only pgm binary file is acceptable
     Only pgm binary file is acceptable
     Image width = 512, Image height = 512

warn: ignoring syscall access(...)

Monochromatic image file input routine 

-----------------------------------------------------

     Maximum gray level = 255


     Image width = 512, Image height = 512

-----------------------------------------------------
     Image width = 512, Image height = 512
     Only pgm binary file is acceptable
     Image width = 512, Image height = 512


     Only pgm binary file is acceptable

-----------------------------------------------------
warn: ignoring syscall access(...)
-----------------------------------------------------
     Maximum gray level = 255

warn: readlink() called on '/proc/self/exe' may yield unexpected results in various settings.
      Returning '/net/bigtemp/ml2au/AxBenchResults/binNoOutIO/sobel'
info: Increasing stack size by one page.

info: Increasing stack size by one page.
info: Increasing stack size by one page.
info: Increasing stack size by one page.
     Only pgm binary file is acceptable
info: Increasing stack size by one page.
info: Increasing stack size by one page.
     Maximum gray level = 255

info: Increasing stack size by one page.
     Image width = 512, Image height = 512
info: Increasing stack size by one page.
Monochromatic image file input routine 

     Only pgm binary file is acceptable
warn: x86 cpuid family 0x0000: unimplemented function 7
-----------------------------------------------------
warn: x86 cpuid family 0x0000: unimplemented function 7
warn: x86 cpuid family 0x0000: unimplemented function 7
warn: x86 cpuid family 0x0000: unimplemented function 7
warn: x86 cpuid family 0x0000: unimplemented function 7
warn: x86 cpuid family 0x0000: unimplemented function 7
warn: x86 cpuid family 0x0000: unimplemented function 7

warn: x86 cpuid family 0x0000: unimplemented function 7

-----------------------------------------------------
     Only pgm binary file is acceptable
     Maximum gray level = 255







warn: ignoring syscall access(...)
     Maximum gray level = 255

     Maximum gray level = 255

warn: ignoring syscall access(...)
Monochromatic image file input routine 
warn: ignoring syscall access(...)
warn: ignoring syscall access(...)
warn: ignoring syscall access(...)
-----------------------------------------------------
warn: ignoring syscall access(...)

     Only pgm binary file is acceptable
     Maximum gray level = 255


warn: ignoring syscall access(...)


warn: readlink() called on '/proc/self/exe' may yield unexpected results in various settings.
      Returning '/net/bigtemp/ml2au/AxBenchResults/binNoOutIO/sobel'
info: Increasing stack size by one page.
info: Increasing stack size by one page.
info: Increasing stack size by one page.
info: Increasing stack size by one page.
info: Increasing stack size by one page.
info: Increasing stack size by one page.
info: Increasing stack size by one page.
info: Increasing stack size by one page.
warn: ignoring syscall access(...)
-----------------------------------------------------
-----------------------------------------------------
-----------------------------------------------------

-----------------------------------------------------

-----------------------------------------------------



     The file doesn't exist!

Monochromatic image file input routine 
Monochromatic image file input routine 
Monochromatic image file input routine 
     The file doesn't exist!
Monochromatic image file input routine 
Monochromatic image file input routine 


-----------------------------------------------------

-----------------------------------------------------
-----------------------------------------------------
-----------------------------------------------------
-----------------------------------------------------
-----------------------------------------------------
-----------------------------------------------------


-----------------------------------------------------

-----------------------------------------------------


-----------------------------------------------------
-----------------------------------------------------
-----------------------------------------------------

Monochromatic image file input routine 
     Only pgm binary file is acceptable
     Only pgm binary file is acceptable

     Only pgm binary file is acceptable



     Only pgm binary file is acceptable

warn: ignoring syscall access(...)

     Only pgm binary file is acceptable
warn: ignoring syscall access(...)
warn: ignoring syscall access(...)
warn: ignoring syscall access(...)
warn: ignoring syscall access(...)

Monochromatic image file input routine 
Monochromatic image file input routine 
warn: ignoring syscall access(...)


Monochromatic image file input routine 

Monochromatic image file input routine 
Monochromatic image file input routine 
-----------------------------------------------------
Monochromatic image file input routine 
-----------------------------------------------------
warn: ignoring syscall access(...)

-----------------------------------------------------
-----------------------------------------------------
-----------------------------------------------------

-----------------------------------------------------

-----------------------------------------------------
-----------------------------------------------------
     Only pgm binary file is acceptable
-----------------------------------------------------





     Only pgm binary file is acceptable




warn: ignoring syscall access(...)

-----------------------------------------------------


-----------------------------------------------------


-----------------------------------------------------
Monochromatic image file input routine 
Monochromatic image file input routine 
     Only pgm binary file is acceptable

warn: ignoring syscall access(...)
-----------------------------------------------------
warn: ignoring syscall access(...)
warn: ignoring syscall access(...)

-----------------------------------------------------
-----------------------------------------------------
     Only pgm binary file is acceptable
warn: ignoring syscall access(...)

-----------------------------------------------------
warn: ignoring syscall access(...)
     Only pgm binary file is acceptable


warn: ignoring syscall access(...)
     Only pgm binary file is acceptable

     Only pgm binary file is acceptable

     Only pgm binary file is acceptable



Monochromatic image file input routine 





Monochromatic image file input routine 
warn: ignoring syscall access(...)
-----------------------------------------------------
Monochromatic image file input routine 
Monochromatic image file input routine 
Monochromatic image file input routine 

Monochromatic image file input routine 

-----------------------------------------------------
-----------------------------------------------------

-----------------------------------------------------
     Only pgm binary file is acceptable
-----------------------------------------------------
-----------------------------------------------------
-----------------------------------------------------

warn: ignoring syscall access(...)
-----------------------------------------------------
-----------------------------------------------------
     Only pgm binary file is acceptable
     Image width = 512, Image height = 512


-----------------------------------------------------


     Image width = 512, Image height = 512
     Image width = 512, Image height = 512


Monochromatic image file input routine 

-----------------------------------------------------
     Image width = 512, Image height = 512

Monochromatic image file input routine 

     Image width = 512, Image height = 512
     Image width = 512, Image height = 512

     Only pgm binary file is acceptable



     Only pgm binary file is acceptable
     Only pgm binary file is acceptable
     Only pgm binary file is acceptable


     Only pgm binary file is acceptable
     The file doesn't exist!
     Only pgm binary file is acceptable
     Maximum gray level = 255

     Image width = 512, Image height = 512
     Image width = 512, Image height = 512


Monochromatic image file input routine 

     Maximum gray level = 255



     Image width = 512, Image height = 512
-----------------------------------------------------
     Maximum gray level = 255

     Image width = 512, Image height = 512
     Image width = 512, Image height = 512

     Image width = 512, Image height = 512

     Image width = 512, Image height = 512
-----------------------------------------------------

     Maximum gray level = 255

     Maximum gray level = 255

     Maximum gray level = 255


     Only pgm binary file is acceptable
     Maximum gray level = 255

     Image width = 512, Image height = 512

     Maximum gray level = 255

     Only pgm binary file is acceptable
-----------------------------------------------------

-----------------------------------------------------


-----------------------------------------------------
     Maximum gray level = 255


-----------------------------------------------------

-----------------------------------------------------

-----------------------------------------------------
     Maximum gray level = 255

     Maximum gray level = 255

     Maximum gray level = 255

     Maximum gray level = 255

Monochromatic image file input routine 
-----------------------------------------------------

     The file doesn't exist!

     Only pgm binary file is acceptable
     Maximum gray level = 255


Monochromatic image file input routine 
Monochromatic image file input routine 
Monochromatic image file input routine 
Monochromatic image file input routine 

Monochromatic image file input routine 
-----------------------------------------------------

-----------------------------------------------------
-----------------------------------------------------
-----------------------------------------------------
-----------------------------------------------------
-----------------------------------------------------
-----------------------------------------------------


-----------------------------------------------------


-----------------------------------------------------


-----------------------------------------------------
-----------------------------------------------------
-----------------------------------------------------



Monochromatic image file input routine 
     Only pgm binary file is acceptable
     Only pgm binary file is acceptable
     Only pgm binary file is acceptable


     Only pgm binary file is acceptable

     Only pgm binary file is acceptable

Monochromatic image file input routine 

Monochromatic image file input routine 
Monochromatic image file input routine 
Monochromatic image file input routine 

Monochromatic image file input routine 
Monochromatic image file input routine 

     The file doesn't exist!


-----------------------------------------------------

-----------------------------------------------------
-----------------------------------------------------
-----------------------------------------------------
-----------------------------------------------------
-----------------------------------------------------
-----------------------------------------------------
-----------------------------------------------------



-----------------------------------------------------





     Image width = 512, Image height = 512
     Only pgm binary file is acceptable


Monochromatic image file input routine 

     Only pgm binary file is acceptable

     Only pgm binary file is acceptable
     Only pgm binary file is acceptable
     Only pgm binary file is acceptable
     Image width = 512, Image height = 512



     Only pgm binary file is acceptable
     Only pgm binary file is acceptable

-----------------------------------------------------


Monochromatic image file input routine 


     Image width = 512, Image height = 512

Monochromatic image file input routine 
-----------------------------------------------------
-----------------------------------------------------
     Maximum gray level = 255



     Image width = 512, Image height = 512
     Only pgm binary file is acceptable


     Image width = 512, Image height = 512
-----------------------------------------------------
     Image width = 512, Image height = 512

     Only pgm binary file is acceptable

     Maximum gray level = 255

     Only pgm binary file is acceptable

     Maximum gray level = 255

     Image width = 512, Image height = 512
     Image width = 512, Image height = 512
-----------------------------------------------------

Monochromatic image file input routine 
     Maximum gray level = 255

     Image width = 512, Image height = 512
-----------------------------------------------------

     Maximum gray level = 255

     Maximum gray level = 255

     Only pgm binary file is acceptable



     Image width = 512, Image height = 512
     Maximum gray level = 255

     Maximum gray level = 255



     Image width = 512, Image height = 512

     Image width = 512, Image height = 512
     Image width = 512, Image height = 512

     Maximum gray level = 255

     The file doesn't exist!
     Maximum gray level = 255

     Image width = 512, Image height = 512

     Maximum gray level = 255

     Maximum gray level = 255

     Maximum gray level = 255

     Image width = 512, Image height = 512
     Image width = 512, Image height = 512
     Maximum gray level = 255

     The file doesn't exist!

     Image width = 512, Image height = 512
     Maximum gray level = 255

     Image width = 512, Image height = 512
     Image width = 512, Image height = 512
     Image width = 512, Image height = 512
     Maximum gray level = 255

     Maximum gray level = 255

     Image width = 512, Image height = 512
     Maximum gray level = 255

     Maximum gray level = 255

     Maximum gray level = 255

     Maximum gray level = 255















     Image width = 512, Image height = 512
     Image width = 512, Image height = 512
     Image width = 512, Image height = 512
     Image width = 512, Image height = 512
     Image width = 512, Image height = 512
     Maximum gray level = 255

     Image width = 512, Image height = 512
     Image width = 512, Image height = 512
     Image width = 512, Image height = 512
     Image width = 512, Image height = 512
     Maximum gray level = 255

     Image width = 512, Image height = 512
     Image width = 512, Image height = 512
     Image width = 512, Image height = 512
     Maximum gray level = 255

     Maximum gray level = 255

     Image width = 512, Image height = 512
     Maximum gray level = 255

     Maximum gray level = 255

     Image width = 512, Image height = 512
     Maximum gray level = 255

     Maximum gray level = 255

     Maximum gray level = 255

     Maximum gray level = 255

     Maximum gray level = 255

     Maximum gray level = 255

     Maximum gray level = 255

     Maximum gray level = 255

-----Image data input OK-----
-----Image data input OK-----


-----------------------------------------------------

-----------------------------------------------------

-----Image data input OK-----

-----------------------------------------------------

Now, filtering of input image is performed

Now, filtering of input image is performed

-----Image data input OK-----

-----------------------------------------------------

-----Image data input OK-----

Now, filtering of input image is performed

-----------------------------------------------------

-----Image data input OK-----

Now, filtering of input image is performed
-----------------------------------------------------


Now, filtering of input image is performed

Now, filtering of input image is performed

-----Image data input OK-----
-----Image data input OK-----


-----------------------------------------------------
-----------------------------------------------------


-----Image data input OK-----

-----------------------------------------------------

-----Image data input OK-----

-----------------------------------------------------

Now, filtering of input image is performed
Now, filtering of input image is performed


Now, filtering of input image is performed

Now, filtering of input image is performed

-----Image data input OK-----

-----------------------------------------------------

Now, filtering of input image is performed

-----Image data input OK-----

-----------------------------------------------------

Now, filtering of input image is performed

-----Image data input OK-----

-----------------------------------------------------

Now, filtering of input image is performed

-----Image data input OK-----

-----------------------------------------------------

-----Image data input OK-----

-----------------------------------------------------
-----Image data input OK-----


-----------------------------------------------------

-----Image data input OK-----

-----------------------------------------------------
-----Image data input OK-----
Now, filtering of input image is performed



-----------------------------------------------------

Now, filtering of input image is performed

Now, filtering of input image is performed

Now, filtering of input image is performed

-----Image data input OK-----
Now, filtering of input image is performed


-----------------------------------------------------

Now, filtering of input image is performed

-----Image data input OK-----

-----------------------------------------------------

-----Image data input OK-----

Now, filtering of input image is performed
-----------------------------------------------------


Now, filtering of input image is performed

-----Image data input OK-----

-----------------------------------------------------

-----Image data input OK-----

-----------------------------------------------------

-----Image data input OK-----

-----------------------------------------------------

Now, filtering of input image is performed

Now, filtering of input image is performed

Now, filtering of input image is performed

-----Image data input OK-----

-----------------------------------------------------

-----Image data input OK-----
-----Image data input OK-----


-----------------------------------------------------
-----------------------------------------------------


Now, filtering of input image is performed

-----Image data input OK-----

-----------------------------------------------------

-----Image data input OK-----

-----------------------------------------------------

Now, filtering of input image is performed

Now, filtering of input image is performed

-----Image data input OK-----

Now, filtering of input image is performed

-----------------------------------------------------

Now, filtering of input image is performed

Now, filtering of input image is performed

-----Image data input OK-----
-----Image data input OK-----


-----------------------------------------------------
-----------------------------------------------------


-----Image data input OK-----

-----------------------------------------------------

Now, filtering of input image is performed
Now, filtering of input image is performed


-----Image data input OK-----
-----Image data input OK-----


-----------------------------------------------------
-----------------------------------------------------


Now, filtering of input image is performed

-----Image data input OK-----

-----------------------------------------------------

-----Image data input OK-----
Now, filtering of input image is performed
Now, filtering of input image is performed



-----------------------------------------------------

-----Image data input OK-----

-----Image data input OK-----
-----------------------------------------------------


-----------------------------------------------------

Now, filtering of input image is performed
-----Image data input OK-----


-----------------------------------------------------

-----Image data input OK-----

Now, filtering of input image is performed

-----------------------------------------------------

-----Image data input OK-----

-----------------------------------------------------

Now, filtering of input image is performed

Now, filtering of input image is performed

-----Image data input OK-----

-----------------------------------------------------

Now, filtering of input image is performed

-----Image data input OK-----

-----------------------------------------------------

Now, filtering of input image is performed

Now, filtering of input image is performed

Now, filtering of input image is performed

-----Image data input OK-----

Now, filtering of input image is performed

-----------------------------------------------------

-----Image data input OK-----
-----Image data input OK-----


-----------------------------------------------------
-----------------------------------------------------


Now, filtering of input image is performed

Now, filtering of input image is performed
Now, filtering of input image is performed


-----Image data input OK-----

-----------------------------------------------------

-----Image data input OK-----

-----------------------------------------------------

Now, filtering of input image is performed

-----Image data input OK-----

-----------------------------------------------------

Now, filtering of input image is performed

Now, filtering of input image is performed

-----Image data input OK-----

-----------------------------------------------------

-----Image data input OK-----

-----------------------------------------------------

Now, filtering of input image is performed

Now, filtering of input image is performed

-----Image data input OK-----

-----------------------------------------------------

Now, filtering of input image is performed

-----Image data input OK-----

-----------------------------------------------------

Now, filtering of input image is performed

-----Image data input OK-----

-----------------------------------------------------

-----Image data input OK-----

-----------------------------------------------------

Now, filtering of input image is performed

Now, filtering of input image is performed

Exiting @ tick 39026833500 because target called exit()
Exiting @ tick 37733768500 because target called exit()
Exiting @ tick 39041764500 because target called exit()
Exiting @ tick 39043146500 because target called exit()
Exiting @ tick 37878627500 because target called exit()
Exiting @ tick 38373273500 because target called exit()
Exiting @ tick 39034634500 because target called exit()
Exiting @ tick 39049868500 because target called exit()
