/if22/ml2au/gem5/gem5
ConvolutionScript.sh: line 12: layer1: command not found
ConvolutionScript.sh: line 13: layer2: command not found
ConvolutionScript.sh: line 14: layer3: command not found
/bigtemp/ml2au/AxBench/AxBenchCPU/axbench/applications/convolution/src/
--cpu-type=detailed --caches --l2cache --l1d_size=32kB --l2_size=512kB --cacheline_size=64 --mem-size=8GB
AlexNet
config 2 = --cpu-type=detailed --caches --l2cache --l1d_size=32kB --l2_size=1MB --cacheline_size=64 --mem-size=8GB
gem5 Simulator System.  http://gem5.org
gem5 is copyrighted software; use the --copyright option for details.

gem5 compiled Jan 16 2017 16:32:23
gem5 started Feb 11 2017 12:40:54
gem5 executing on falcon7, pid 10926
command line: build/X86/gem5.opt -d /bigtemp/ml2au/AxBench/AxBenchCPU/axbench/applications/convolution/src/32kB1MB2MB64BLOCKSIZE configs/example/se.py --cpu-type=detailed --caches --l2cache --l1d_size=32kB --l2_size=1MB --cacheline_size=64 --mem-size=8GB -c /bigtemp/ml2au/AxBench/AxBenchCPU/axbench/applications/convolution/src/convolution '--options=224 224 11 11 0 0 2 2 100 100'

Global frequency set at 1000000000000 ticks per second
warn: Sockets disabled, not accepting gdb connections
gem5 Simulator System.  http://gem5.org
gem5 is copyrighted software; use the --copyright option for details.

gem5 compiled Jan 16 2017 16:32:23
gem5 started Feb 11 2017 12:40:54
gem5 executing on falcon7, pid 10925
command line: build/X86/gem5.opt -d /bigtemp/ml2au/AxBench/AxBenchCPU/axbench/applications/convolution/src/32kB512kB1MB64BLOCKSIZE configs/example/se.py --cpu-type=detailed --caches --l2cache --l1d_size=32kB --l2_size=512kB --cacheline_size=64 --mem-size=8GB -c /bigtemp/ml2au/AxBench/AxBenchCPU/axbench/applications/convolution/src/convolution '--options=224 224 11 11 0 0 2 2 100 100'

Global frequency set at 1000000000000 ticks per second
warn: Sockets disabled, not accepting gdb connections
warn: ClockedObject: More than one power state change request encountered within the same simulation tick
warn: ClockedObject: More than one power state change request encountered within the same simulation tick
**** REAL SIMULATION ****
info: Entering event queue @ 0.  Starting simulation...
**** REAL SIMULATION ****
info: Entering event queue @ 0.  Starting simulation...
warn: ignoring syscall access(...)
warn: ignoring syscall access(...)
warn: ignoring syscall access(...)
warn: ignoring syscall access(...)
warn: ignoring syscall access(...)
warn: ignoring syscall access(...)
warn: ignoring syscall mprotect(...)
warn: ignoring syscall mprotect(...)
warn: ignoring syscall access(...)
warn: ignoring syscall access(...)
warn: ignoring syscall mprotect(...)
warn: ignoring syscall mprotect(...)
warn: ignoring syscall access(...)
warn: ignoring syscall access(...)
warn: ignoring syscall mprotect(...)
warn: ignoring syscall mprotect(...)
warn: ignoring syscall access(...)
warn: ignoring syscall access(...)
warn: ignoring syscall mprotect(...)
warn: ignoring syscall mprotect(...)
warn: x86 cpuid family 0x0000: unimplemented function 7
warn: ignoring syscall mprotect(...)
warn: x86 cpuid family 0x0000: unimplemented function 7
warn: ignoring syscall mprotect(...)
warn: ignoring syscall mprotect(...)
warn: ignoring syscall mprotect(...)
warn: ignoring syscall mprotect(...)
warn: ignoring syscall mprotect(...)
warn: ignoring syscall mprotect(...)
warn: ignoring syscall mprotect(...)
warn: ignoring syscall mprotect(...)
warn: ignoring syscall mprotect(...)
warn: ignoring syscall mprotect(...)
warn: ignoring syscall mprotect(...)
Exiting @ tick 314990117785000 because target called exit()
Exiting @ tick 318128877336500 because target called exit()
