./Common.sh: line 3: /net/bigtemp/ml2au/AxBenchResults/Multiple16: Is a directory

1
--cpu-type=detailed --caches --l2cache  --l1d_size=32kB --l2_size=512kB  --cacheline_size=64 --mem-size=4GB --num-cpus=8
2
--cpu-type=detailed --caches --l2cache  --l1d_size=32kB --l2_size=1MB  --cacheline_size=64  --mem-size=4GB --num-cpus=8
3
--cpu-type=detailed --caches --l2cache  --l1d_size=32kB --l2_size=2MB  --cacheline_size=64  --mem-size=4GB --num-cpus=8
4
--cpu-type=detailed --caches --l2cache  --l1d_size=32kB --l2_size=4MB  --cacheline_size=64  --mem-size=4GB --num-cpus=8
5
--cpu-type=detailed --caches --l2cache  --l1d_size=32kB --l2_size=8MB  --cacheline_size=64  --mem-size=4GB --num-cpus=8
6
--cpu-type=detailed --caches --l2cache  --l1d_size=32kB --l2_size=16MB  --cacheline_size=64  --mem-size=4GB --num-cpus=8
7
--cpu-type=detailed --caches --l2cache  --l1d_size=32kB --l2_size=32MB  --cacheline_size=64  --mem-size=4GB --num-cpus=8
8
--cpu-type=detailed --caches --l2cache  --l1d_size=32kB --l2_size=64MB  --cacheline_size=64  --mem-size=4GB --num-cpus=8
gem5 Simulator System.  http://gem5.org
gem5 is copyrighted software; use the --copyright option for details.

gem5 compiled Jan 16 2017 16:32:23
gem5 started Feb 11 2017 11:11:51
gem5 executing on falcon5, pid 28726
command line: build/X86/gem5.opt -d /bigtemp/ml2au/AxBenchResults/Multiple16/jpeg/NoOutIOC3_1000K configs/example/se.py --cpu-type=detailed --caches --l2cache --l1d_size=32kB --l2_size=2MB --cacheline_size=64 --mem-size=4GB --num-cpus=8 -c '/bigtemp/ml2au/AxBenchResults/binNoOutIO/jpeg;/bigtemp/ml2au/AxBenchResults/binNoOutIO/jpeg;/bigtemp/ml2au/AxBenchResults/binNoOutIO/jpeg;/bigtemp/ml2au/AxBenchResults/binNoOutIO/jpeg;/bigtemp/ml2au/AxBenchResults/binNoOutIO/jpeg;/bigtemp/ml2au/AxBenchResults/binNoOutIO/jpeg;/bigtemp/ml2au/AxBenchResults/binNoOutIO/jpeg;/bigtemp/ml2au/AxBenchResults/binNoOutIO/jpeg' '--options=options1t;/bigtemp/ml2au/AxBench/AxBenchCPU/axbench/applications/jpeg/test.data/input/5.rgb;/bigtemp/ml2au/AxBench/AxBenchCPU/axbench/applications/jpeg/test.data/input/5.rgb;/bigtemp/ml2au/AxBench/AxBenchCPU/axbench/applications/jpeg/test.data/input/5.rgb;/bigtemp/ml2au/AxBench/AxBenchCPU/axbench/applications/jpeg/test.data/input/5.rgb;/bigtemp/ml2au/AxBench/AxBenchCPU/axbench/applications/jpeg/test.data/input/5.rgb;/bigtemp/ml2au/AxBench/AxBenchCPU/axbench/applications/jpeg/test.data/input/5.rgb;/bigtemp/ml2au/AxBench/AxBenchCPU/axbench/applications/jpeg/test.data/input/5.rgb'

Global frequency set at 1000000000000 ticks per second
warn: DRAM device capacity (8192 Mbytes) does not match the address range assigned (4096 Mbytes)
gem5 Simulator System.  http://gem5.org
gem5 is copyrighted software; use the --copyright option for details.

gem5 compiled Jan 16 2017 16:32:23
gem5 started Feb 11 2017 11:11:51
gem5 executing on falcon5, pid 28730
command line: build/X86/gem5.opt -d /bigtemp/ml2au/AxBenchResults/Multiple16/jpeg/NoOutIOC7_1000K configs/example/se.py --cpu-type=detailed --caches --l2cache --l1d_size=32kB --l2_size=32MB --cacheline_size=64 --mem-size=4GB --num-cpus=8 -c '/bigtemp/ml2au/AxBenchResults/binNoOutIO/jpeg;/bigtemp/ml2au/AxBenchResults/binNoOutIO/jpeg;/bigtemp/ml2au/AxBenchResults/binNoOutIO/jpeg;/bigtemp/ml2au/AxBenchResults/binNoOutIO/jpeg;/bigtemp/ml2au/AxBenchResults/binNoOutIO/jpeg;/bigtemp/ml2au/AxBenchResults/binNoOutIO/jpeg;/bigtemp/ml2au/AxBenchResults/binNoOutIO/jpeg;/bigtemp/ml2au/AxBenchResults/binNoOutIO/jpeg' '--options=options1t;/bigtemp/ml2au/AxBench/AxBenchCPU/axbench/applications/jpeg/test.data/input/5.rgb;/bigtemp/ml2au/AxBench/AxBenchCPU/axbench/applications/jpeg/test.data/input/5.rgb;/bigtemp/ml2au/AxBench/AxBenchCPU/axbench/applications/jpeg/test.data/input/5.rgb;/bigtemp/ml2au/AxBench/AxBenchCPU/axbench/applications/jpeg/test.data/input/5.rgb;/bigtemp/ml2au/AxBench/AxBenchCPU/axbench/applications/jpeg/test.data/input/5.rgb;/bigtemp/ml2au/AxBench/AxBenchCPU/axbench/applications/jpeg/test.data/input/5.rgb;/bigtemp/ml2au/AxBench/AxBenchCPU/axbench/applications/jpeg/test.data/input/5.rgb'

Global frequency set at 1000000000000 ticks per second
warn: DRAM device capacity (8192 Mbytes) does not match the address range assigned (4096 Mbytes)
gem5 Simulator System.  http://gem5.org
gem5 is copyrighted software; use the --copyright option for details.

gem5 compiled Jan 16 2017 16:32:23
gem5 started Feb 11 2017 11:11:51
gem5 executing on falcon5, pid 28728
command line: build/X86/gem5.opt -d /bigtemp/ml2au/AxBenchResults/Multiple16/jpeg/NoOutIOC5_1000K configs/example/se.py --cpu-type=detailed --caches --l2cache --l1d_size=32kB --l2_size=8MB --cacheline_size=64 --mem-size=4GB --num-cpus=8 -c '/bigtemp/ml2au/AxBenchResults/binNoOutIO/jpeg;/bigtemp/ml2au/AxBenchResults/binNoOutIO/jpeg;/bigtemp/ml2au/AxBenchResults/binNoOutIO/jpeg;/bigtemp/ml2au/AxBenchResults/binNoOutIO/jpeg;/bigtemp/ml2au/AxBenchResults/binNoOutIO/jpeg;/bigtemp/ml2au/AxBenchResults/binNoOutIO/jpeg;/bigtemp/ml2au/AxBenchResults/binNoOutIO/jpeg;/bigtemp/ml2au/AxBenchResults/binNoOutIO/jpeg' '--options=options1t;/bigtemp/ml2au/AxBench/AxBenchCPU/axbench/applications/jpeg/test.data/input/5.rgb;/bigtemp/ml2au/AxBench/AxBenchCPU/axbench/applications/jpeg/test.data/input/5.rgb;/bigtemp/ml2au/AxBench/AxBenchCPU/axbench/applications/jpeg/test.data/input/5.rgb;/bigtemp/ml2au/AxBench/AxBenchCPU/axbench/applications/jpeg/test.data/input/5.rgb;/bigtemp/ml2au/AxBench/AxBenchCPU/axbench/applications/jpeg/test.data/input/5.rgb;/bigtemp/ml2au/AxBench/AxBenchCPU/axbench/applications/jpeg/test.data/input/5.rgb;/bigtemp/ml2au/AxBench/AxBenchCPU/axbench/applications/jpeg/test.data/input/5.rgb'

Global frequency set at 1000000000000 ticks per second
warn: DRAM device capacity (8192 Mbytes) does not match the address range assigned (4096 Mbytes)
gem5 Simulator System.  http://gem5.org
gem5 is copyrighted software; use the --copyright option for details.

gem5 compiled Jan 16 2017 16:32:23
gem5 started Feb 11 2017 11:11:51
gem5 executing on falcon5, pid 28727
command line: build/X86/gem5.opt -d /bigtemp/ml2au/AxBenchResults/Multiple16/jpeg/NoOutIOC4_1000K configs/example/se.py --cpu-type=detailed --caches --l2cache --l1d_size=32kB --l2_size=4MB --cacheline_size=64 --mem-size=4GB --num-cpus=8 -c '/bigtemp/ml2au/AxBenchResults/binNoOutIO/jpeg;/bigtemp/ml2au/AxBenchResults/binNoOutIO/jpeg;/bigtemp/ml2au/AxBenchResults/binNoOutIO/jpeg;/bigtemp/ml2au/AxBenchResults/binNoOutIO/jpeg;/bigtemp/ml2au/AxBenchResults/binNoOutIO/jpeg;/bigtemp/ml2au/AxBenchResults/binNoOutIO/jpeg;/bigtemp/ml2au/AxBenchResults/binNoOutIO/jpeg;/bigtemp/ml2au/AxBenchResults/binNoOutIO/jpeg' '--options=options1t;/bigtemp/ml2au/AxBench/AxBenchCPU/axbench/applications/jpeg/test.data/input/5.rgb;/bigtemp/ml2au/AxBench/AxBenchCPU/axbench/applications/jpeg/test.data/input/5.rgb;/bigtemp/ml2au/AxBench/AxBenchCPU/axbench/applications/jpeg/test.data/input/5.rgb;/bigtemp/ml2au/AxBench/AxBenchCPU/axbench/applications/jpeg/test.data/input/5.rgb;/bigtemp/ml2au/AxBench/AxBenchCPU/axbench/applications/jpeg/test.data/input/5.rgb;/bigtemp/ml2au/AxBench/AxBenchCPU/axbench/applications/jpeg/test.data/input/5.rgb;/bigtemp/ml2au/AxBench/AxBenchCPU/axbench/applications/jpeg/test.data/input/5.rgb'

Global frequency set at 1000000000000 ticks per second
warn: DRAM device capacity (8192 Mbytes) does not match the address range assigned (4096 Mbytes)
gem5 Simulator System.  http://gem5.org
gem5 is copyrighted software; use the --copyright option for details.

gem5 compiled Jan 16 2017 16:32:23
gem5 started Feb 11 2017 11:11:51
gem5 executing on falcon5, pid 28724
command line: build/X86/gem5.opt -d /bigtemp/ml2au/AxBenchResults/Multiple16/jpeg/NoOutIOC1_1000K configs/example/se.py --cpu-type=detailed --caches --l2cache --l1d_size=32kB --l2_size=512kB --cacheline_size=64 --mem-size=4GB --num-cpus=8 -c '/bigtemp/ml2au/AxBenchResults/binNoOutIO/jpeg;/bigtemp/ml2au/AxBenchResults/binNoOutIO/jpeg;/bigtemp/ml2au/AxBenchResults/binNoOutIO/jpeg;/bigtemp/ml2au/AxBenchResults/binNoOutIO/jpeg;/bigtemp/ml2au/AxBenchResults/binNoOutIO/jpeg;/bigtemp/ml2au/AxBenchResults/binNoOutIO/jpeg;/bigtemp/ml2au/AxBenchResults/binNoOutIO/jpeg;/bigtemp/ml2au/AxBenchResults/binNoOutIO/jpeg' '--options=options1t;/bigtemp/ml2au/AxBench/AxBenchCPU/axbench/applications/jpeg/test.data/input/5.rgb;/bigtemp/ml2au/AxBench/AxBenchCPU/axbench/applications/jpeg/test.data/input/5.rgb;/bigtemp/ml2au/AxBench/AxBenchCPU/axbench/applications/jpeg/test.data/input/5.rgb;/bigtemp/ml2au/AxBench/AxBenchCPU/axbench/applications/jpeg/test.data/input/5.rgb;/bigtemp/ml2au/AxBench/AxBenchCPU/axbench/applications/jpeg/test.data/input/5.rgb;/bigtemp/ml2au/AxBench/AxBenchCPU/axbench/applications/jpeg/test.data/input/5.rgb;/bigtemp/ml2au/AxBench/AxBenchCPU/axbench/applications/jpeg/test.data/input/5.rgb'

Global frequency set at 1000000000000 ticks per second
warn: DRAM device capacity (8192 Mbytes) does not match the address range assigned (4096 Mbytes)
gem5 Simulator System.  http://gem5.org
gem5 is copyrighted software; use the --copyright option for details.

gem5 compiled Jan 16 2017 16:32:23
gem5 started Feb 11 2017 11:11:51
gem5 executing on falcon5, pid 28731
command line: build/X86/gem5.opt -d /bigtemp/ml2au/AxBenchResults/Multiple16/jpeg/NoOutIOC8_1000K configs/example/se.py --cpu-type=detailed --caches --l2cache --l1d_size=32kB --l2_size=64MB --cacheline_size=64 --mem-size=4GB --num-cpus=8 -c '/bigtemp/ml2au/AxBenchResults/binNoOutIO/jpeg;/bigtemp/ml2au/AxBenchResults/binNoOutIO/jpeg;/bigtemp/ml2au/AxBenchResults/binNoOutIO/jpeg;/bigtemp/ml2au/AxBenchResults/binNoOutIO/jpeg;/bigtemp/ml2au/AxBenchResults/binNoOutIO/jpeg;/bigtemp/ml2au/AxBenchResults/binNoOutIO/jpeg;/bigtemp/ml2au/AxBenchResults/binNoOutIO/jpeg;/bigtemp/ml2au/AxBenchResults/binNoOutIO/jpeg' '--options=options1t;/bigtemp/ml2au/AxBench/AxBenchCPU/axbench/applications/jpeg/test.data/input/5.rgb;/bigtemp/ml2au/AxBench/AxBenchCPU/axbench/applications/jpeg/test.data/input/5.rgb;/bigtemp/ml2au/AxBench/AxBenchCPU/axbench/applications/jpeg/test.data/input/5.rgb;/bigtemp/ml2au/AxBench/AxBenchCPU/axbench/applications/jpeg/test.data/input/5.rgb;/bigtemp/ml2au/AxBench/AxBenchCPU/axbench/applications/jpeg/test.data/input/5.rgb;/bigtemp/ml2au/AxBench/AxBenchCPU/axbench/applications/jpeg/test.data/input/5.rgb;/bigtemp/ml2au/AxBench/AxBenchCPU/axbench/applications/jpeg/test.data/input/5.rgb'

Global frequency set at 1000000000000 ticks per second
warn: DRAM device capacity (8192 Mbytes) does not match the address range assigned (4096 Mbytes)
warn: Sockets disabled, not accepting gdb connections
warn: Sockets disabled, not accepting gdb connections
warn: Sockets disabled, not accepting gdb connections
warn: Sockets disabled, not accepting gdb connections
warn: Sockets disabled, not accepting gdb connections
gem5 Simulator System.  http://gem5.org
gem5 is copyrighted software; use the --copyright option for details.

gem5 compiled Jan 16 2017 16:32:23
gem5 started Feb 11 2017 11:11:51
gem5 executing on falcon5, pid 28729
command line: build/X86/gem5.opt -d /bigtemp/ml2au/AxBenchResults/Multiple16/jpeg/NoOutIOC6_1000K configs/example/se.py --cpu-type=detailed --caches --l2cache --l1d_size=32kB --l2_size=16MB --cacheline_size=64 --mem-size=4GB --num-cpus=8 -c '/bigtemp/ml2au/AxBenchResults/binNoOutIO/jpeg;/bigtemp/ml2au/AxBenchResults/binNoOutIO/jpeg;/bigtemp/ml2au/AxBenchResults/binNoOutIO/jpeg;/bigtemp/ml2au/AxBenchResults/binNoOutIO/jpeg;/bigtemp/ml2au/AxBenchResults/binNoOutIO/jpeg;/bigtemp/ml2au/AxBenchResults/binNoOutIO/jpeg;/bigtemp/ml2au/AxBenchResults/binNoOutIO/jpeg;/bigtemp/ml2au/AxBenchResults/binNoOutIO/jpeg' '--options=options1t;/bigtemp/ml2au/AxBench/AxBenchCPU/axbench/applications/jpeg/test.data/input/5.rgb;/bigtemp/ml2au/AxBench/AxBenchCPU/axbench/applications/jpeg/test.data/input/5.rgb;/bigtemp/ml2au/AxBench/AxBenchCPU/axbench/applications/jpeg/test.data/input/5.rgb;/bigtemp/ml2au/AxBench/AxBenchCPU/axbench/applications/jpeg/test.data/input/5.rgb;/bigtemp/ml2au/AxBench/AxBenchCPU/axbench/applications/jpeg/test.data/input/5.rgb;/bigtemp/ml2au/AxBench/AxBenchCPU/axbench/applications/jpeg/test.data/input/5.rgb;/bigtemp/ml2au/AxBench/AxBenchCPU/axbench/applications/jpeg/test.data/input/5.rgb'

Global frequency set at 1000000000000 ticks per second
warn: DRAM device capacity (8192 Mbytes) does not match the address range assigned (4096 Mbytes)
gem5 Simulator System.  http://gem5.org
gem5 is copyrighted software; use the --copyright option for details.

gem5 compiled Jan 16 2017 16:32:23
gem5 started Feb 11 2017 11:11:51
gem5 executing on falcon5, pid 28725
command line: build/X86/gem5.opt -d /bigtemp/ml2au/AxBenchResults/Multiple16/jpeg/NoOutIOC2_1000K configs/example/se.py --cpu-type=detailed --caches --l2cache --l1d_size=32kB --l2_size=1MB --cacheline_size=64 --mem-size=4GB --num-cpus=8 -c '/bigtemp/ml2au/AxBenchResults/binNoOutIO/jpeg;/bigtemp/ml2au/AxBenchResults/binNoOutIO/jpeg;/bigtemp/ml2au/AxBenchResults/binNoOutIO/jpeg;/bigtemp/ml2au/AxBenchResults/binNoOutIO/jpeg;/bigtemp/ml2au/AxBenchResults/binNoOutIO/jpeg;/bigtemp/ml2au/AxBenchResults/binNoOutIO/jpeg;/bigtemp/ml2au/AxBenchResults/binNoOutIO/jpeg;/bigtemp/ml2au/AxBenchResults/binNoOutIO/jpeg' '--options=options1t;/bigtemp/ml2au/AxBench/AxBenchCPU/axbench/applications/jpeg/test.data/input/5.rgb;/bigtemp/ml2au/AxBench/AxBenchCPU/axbench/applications/jpeg/test.data/input/5.rgb;/bigtemp/ml2au/AxBench/AxBenchCPU/axbench/applications/jpeg/test.data/input/5.rgb;/bigtemp/ml2au/AxBench/AxBenchCPU/axbench/applications/jpeg/test.data/input/5.rgb;/bigtemp/ml2au/AxBench/AxBenchCPU/axbench/applications/jpeg/test.data/input/5.rgb;/bigtemp/ml2au/AxBench/AxBenchCPU/axbench/applications/jpeg/test.data/input/5.rgb;/bigtemp/ml2au/AxBench/AxBenchCPU/axbench/applications/jpeg/test.data/input/5.rgb'

Global frequency set at 1000000000000 ticks per second
warn: DRAM device capacity (8192 Mbytes) does not match the address range assigned (4096 Mbytes)
warn: Sockets disabled, not accepting gdb connections
warn: Sockets disabled, not accepting gdb connections
warn: Sockets disabled, not accepting gdb connections
warn: ClockedObject: More than one power state change request encountered within the same simulation tick
warn: ClockedObject: More than one power state change request encountered within the same simulation tick
warn: ClockedObject: More than one power state change request encountered within the same simulation tick
warn: ClockedObject: More than one power state change request encountered within the same simulation tick
warn: ClockedObject: More than one power state change request encountered within the same simulation tick
warn: ClockedObject: More than one power state change request encountered within the same simulation tick
warn: ClockedObject: More than one power state change request encountered within the same simulation tick
warn: ClockedObject: More than one power state change request encountered within the same simulation tick
warn: ClockedObject: More than one power state change request encountered within the same simulation tick
warn: ClockedObject: More than one power state change request encountered within the same simulation tick
warn: ClockedObject: More than one power state change request encountered within the same simulation tick
warn: ClockedObject: More than one power state change request encountered within the same simulation tick
warn: ClockedObject: More than one power state change request encountered within the same simulation tick
warn: ClockedObject: More than one power state change request encountered within the same simulation tick
warn: ClockedObject: More than one power state change request encountered within the same simulation tick
warn: ClockedObject: More than one power state change request encountered within the same simulation tick
warn: ClockedObject: More than one power state change request encountered within the same simulation tick
warn: ClockedObject: More than one power state change request encountered within the same simulation tick
warn: ClockedObject: More than one power state change request encountered within the same simulation tick
warn: ClockedObject: More than one power state change request encountered within the same simulation tick
warn: ClockedObject: More than one power state change request encountered within the same simulation tick
warn: ClockedObject: More than one power state change request encountered within the same simulation tick
warn: ClockedObject: More than one power state change request encountered within the same simulation tick
warn: ClockedObject: More than one power state change request encountered within the same simulation tick
warn: ClockedObject: More than one power state change request encountered within the same simulation tick
warn: ClockedObject: More than one power state change request encountered within the same simulation tick
warn: ClockedObject: More than one power state change request encountered within the same simulation tick
warn: ClockedObject: More than one power state change request encountered within the same simulation tick
warn: ClockedObject: More than one power state change request encountered within the same simulation tick
warn: ClockedObject: More than one power state change request encountered within the same simulation tick
warn: ClockedObject: More than one power state change request encountered within the same simulation tick
warn: ClockedObject: More than one power state change request encountered within the same simulation tick
warn: ClockedObject: More than one power state change request encountered within the same simulation tick
warn: ClockedObject: More than one power state change request encountered within the same simulation tick
warn: ClockedObject: More than one power state change request encountered within the same simulation tick
warn: ClockedObject: More than one power state change request encountered within the same simulation tick
warn: ClockedObject: More than one power state change request encountered within the same simulation tick
warn: ClockedObject: More than one power state change request encountered within the same simulation tick
warn: ClockedObject: More than one power state change request encountered within the same simulation tick
warn: ClockedObject: More than one power state change request encountered within the same simulation tick
warn: ClockedObject: More than one power state change request encountered within the same simulation tick
warn: ClockedObject: More than one power state change request encountered within the same simulation tick
warn: ClockedObject: More than one power state change request encountered within the same simulation tick
warn: ClockedObject: More than one power state change request encountered within the same simulation tick
warn: ClockedObject: More than one power state change request encountered within the same simulation tick
warn: ClockedObject: More than one power state change request encountered within the same simulation tick
warn: ClockedObject: More than one power state change request encountered within the same simulation tick
warn: ClockedObject: More than one power state change request encountered within the same simulation tick
warn: ClockedObject: More than one power state change request encountered within the same simulation tick
warn: ClockedObject: More than one power state change request encountered within the same simulation tick
warn: ClockedObject: More than one power state change request encountered within the same simulation tick
warn: ClockedObject: More than one power state change request encountered within the same simulation tick
warn: ClockedObject: More than one power state change request encountered within the same simulation tick
warn: ClockedObject: More than one power state change request encountered within the same simulation tick
warn: ClockedObject: More than one power state change request encountered within the same simulation tick
warn: ClockedObject: More than one power state change request encountered within the same simulation tick
**** REAL SIMULATION ****
info: Entering event queue @ 0.  Starting simulation...
warn: ClockedObject: More than one power state change request encountered within the same simulation tick
warn: ClockedObject: More than one power state change request encountered within the same simulation tick
**** REAL SIMULATION ****
info: Entering event queue @ 0.  Starting simulation...
warn: ClockedObject: More than one power state change request encountered within the same simulation tick
**** REAL SIMULATION ****
info: Entering event queue @ 0.  Starting simulation...
**** REAL SIMULATION ****
info: Entering event queue @ 0.  Starting simulation...
warn: ClockedObject: More than one power state change request encountered within the same simulation tick
warn: ClockedObject: More than one power state change request encountered within the same simulation tick
**** REAL SIMULATION ****
info: Entering event queue @ 0.  Starting simulation...
warn: ClockedObject: More than one power state change request encountered within the same simulation tick
warn: ClockedObject: More than one power state change request encountered within the same simulation tick
warn: x86 cpuid family 0x0000: unimplemented function 7
warn: x86 cpuid family 0x0000: unimplemented function 7
warn: x86 cpuid family 0x0000: unimplemented function 7
warn: x86 cpuid family 0x0000: unimplemented function 7
warn: x86 cpuid family 0x0000: unimplemented function 7
warn: x86 cpuid family 0x0000: unimplemented function 7
warn: x86 cpuid family 0x0000: unimplemented function 7
warn: x86 cpuid family 0x0000: unimplemented function 7
warn: ClockedObject: More than one power state change request encountered within the same simulation tick
**** REAL SIMULATION ****
info: Entering event queue @ 0.  Starting simulation...
warn: x86 cpuid family 0x0000: unimplemented function 7
warn: x86 cpuid family 0x0000: unimplemented function 7
warn: x86 cpuid family 0x0000: unimplemented function 7
warn: x86 cpuid family 0x0000: unimplemented function 7
warn: x86 cpuid family 0x0000: unimplemented function 7
warn: x86 cpuid family 0x0000: unimplemented function 7
warn: x86 cpuid family 0x0000: unimplemented function 7
warn: x86 cpuid family 0x0000: unimplemented function 7
warn: x86 cpuid family 0x0000: unimplemented function 7
warn: x86 cpuid family 0x0000: unimplemented function 7
warn: x86 cpuid family 0x0000: unimplemented function 7
warn: x86 cpuid family 0x0000: unimplemented function 7
warn: x86 cpuid family 0x0000: unimplemented function 7
warn: x86 cpuid family 0x0000: unimplemented function 7
warn: x86 cpuid family 0x0000: unimplemented function 7
warn: x86 cpuid family 0x0000: unimplemented function 7
**** REAL SIMULATION ****
info: Entering event queue @ 0.  Starting simulation...
warn: x86 cpuid family 0x0000: unimplemented function 7
warn: x86 cpuid family 0x0000: unimplemented function 7
warn: x86 cpuid family 0x0000: unimplemented function 7
warn: x86 cpuid family 0x0000: unimplemented function 7
warn: x86 cpuid family 0x0000: unimplemented function 7
warn: x86 cpuid family 0x0000: unimplemented function 7
warn: x86 cpuid family 0x0000: unimplemented function 7
warn: x86 cpuid family 0x0000: unimplemented function 7
**** REAL SIMULATION ****
info: Entering event queue @ 0.  Starting simulation...
warn: x86 cpuid family 0x0000: unimplemented function 7
warn: x86 cpuid family 0x0000: unimplemented function 7
warn: x86 cpuid family 0x0000: unimplemented function 7
warn: x86 cpuid family 0x0000: unimplemented function 7
warn: x86 cpuid family 0x0000: unimplemented function 7
warn: x86 cpuid family 0x0000: unimplemented function 7
warn: x86 cpuid family 0x0000: unimplemented function 7
warn: x86 cpuid family 0x0000: unimplemented function 7
warn: readlink() called on '/proc/self/exe' may yield unexpected results in various settings.
      Returning '/net/bigtemp/ml2au/AxBenchResults/binNoOutIO/jpeg'
info: Increasing stack size by one page.
info: Increasing stack size by one page.
info: Increasing stack size by one page.
info: Increasing stack size by one page.
info: Increasing stack size by one page.
info: Increasing stack size by one page.
info: Increasing stack size by one page.
info: Increasing stack size by one page.
warn: readlink() called on '/proc/self/exe' may yield unexpected results in various settings.
      Returning '/net/bigtemp/ml2au/AxBenchResults/binNoOutIO/jpeg'
info: Increasing stack size by one page.
info: Increasing stack size by one page.
warn: readlink() called on '/proc/self/exe' may yield unexpected results in various settings.
      Returning '/net/bigtemp/ml2au/AxBenchResults/binNoOutIO/jpeg'
info: Increasing stack size by one page.
info: Increasing stack size by one page.
info: Increasing stack size by one page.
info: Increasing stack size by one page.
info: Increasing stack size by one page.
info: Increasing stack size by one page.
info: Increasing stack size by one page.
info: Increasing stack size by one page.
info: Increasing stack size by one page.
info: Increasing stack size by one page.
info: Increasing stack size by one page.
warn: x86 cpuid family 0x0000: unimplemented function 7
info: Increasing stack size by one page.
warn: x86 cpuid family 0x0000: unimplemented function 7
warn: x86 cpuid family 0x0000: unimplemented function 7
warn: x86 cpuid family 0x0000: unimplemented function 7
warn: x86 cpuid family 0x0000: unimplemented function 7
warn: x86 cpuid family 0x0000: unimplemented function 7
info: Increasing stack size by one page.
warn: x86 cpuid family 0x0000: unimplemented function 7
warn: x86 cpuid family 0x0000: unimplemented function 7
info: Increasing stack size by one page.
warn: readlink() called on '/proc/self/exe' may yield unexpected results in various settings.
      Returning '/net/bigtemp/ml2au/AxBenchResults/binNoOutIO/jpeg'
info: Increasing stack size by one page.
info: Increasing stack size by one page.
info: Increasing stack size by one page.
info: Increasing stack size by one page.
info: Increasing stack size by one page.
info: Increasing stack size by one page.
info: Increasing stack size by one page.
info: Increasing stack size by one page.
warn: x86 cpuid family 0x0000: unimplemented function 7
warn: x86 cpuid family 0x0000: unimplemented function 7
warn: x86 cpuid family 0x0000: unimplemented function 7
warn: x86 cpuid family 0x0000: unimplemented function 7
warn: x86 cpuid family 0x0000: unimplemented function 7
warn: x86 cpuid family 0x0000: unimplemented function 7
warn: x86 cpuid family 0x0000: unimplemented function 7
warn: x86 cpuid family 0x0000: unimplemented function 7
warn: readlink() called on '/proc/self/exe' may yield unexpected results in various settings.
      Returning '/net/bigtemp/ml2au/AxBenchResults/binNoOutIO/jpeg'
info: Increasing stack size by one page.
info: Increasing stack size by one page.
info: Increasing stack size by one page.
info: Increasing stack size by one page.
info: Increasing stack size by one page.
info: Increasing stack size by one page.
info: Increasing stack size by one page.
info: Increasing stack size by one page.
warn: x86 cpuid family 0x0000: unimplemented function 7
warn: x86 cpuid family 0x0000: unimplemented function 7
warn: x86 cpuid family 0x0000: unimplemented function 7
warn: x86 cpuid family 0x0000: unimplemented function 7
warn: x86 cpuid family 0x0000: unimplemented function 7
warn: x86 cpuid family 0x0000: unimplemented function 7
warn: x86 cpuid family 0x0000: unimplemented function 7
warn: x86 cpuid family 0x0000: unimplemented function 7
warn: readlink() called on '/proc/self/exe' may yield unexpected results in various settings.
      Returning '/net/bigtemp/ml2au/AxBenchResults/binNoOutIO/jpeg'
info: Increasing stack size by one page.
info: Increasing stack size by one page.
info: Increasing stack size by one page.
info: Increasing stack size by one page.
info: Increasing stack size by one page.
info: Increasing stack size by one page.
info: Increasing stack size by one page.
info: Increasing stack size by one page.
warn: readlink() called on '/proc/self/exe' may yield unexpected results in various settings.
      Returning '/net/bigtemp/ml2au/AxBenchResults/binNoOutIO/jpeg'
info: Increasing stack size by one page.
info: Increasing stack size by one page.
info: Increasing stack size by one page.
info: Increasing stack size by one page.
info: Increasing stack size by one page.
info: Increasing stack size by one page.
info: Increasing stack size by one page.
info: Increasing stack size by one page.
warn: readlink() called on '/proc/self/exe' may yield unexpected results in various settings.
      Returning '/net/bigtemp/ml2au/AxBenchResults/binNoOutIO/jpeg'
info: Increasing stack size by one page.
info: Increasing stack size by one page.
info: Increasing stack size by one page.
info: Increasing stack size by one page.
info: Increasing stack size by one page.
info: Increasing stack size by one page.
info: Increasing stack size by one page.
info: Increasing stack size by one page.
warn: ignoring syscall access(...)
warn: ignoring syscall access(...)
warn: ignoring syscall access(...)
warn: ignoring syscall access(...)
warn: ignoring syscall access(...)
warn: ignoring syscall access(...)
warn: ignoring syscall access(...)
warn: ignoring syscall access(...)
warn: ignoring syscall access(...)
warn: ignoring syscall access(...)
warn: ignoring syscall access(...)
warn: ignoring syscall access(...)
warn: ignoring syscall access(...)
warn: ignoring syscall access(...)
warn: ignoring syscall access(...)
warn: ignoring syscall access(...)
warn: ignoring syscall access(...)
warn: ignoring syscall access(...)
warn: ignoring syscall access(...)
warn: ignoring syscall access(...)
warn: ignoring syscall access(...)
warn: ignoring syscall access(...)
warn: ignoring syscall access(...)
warn: ignoring syscall access(...)
warn: ignoring syscall access(...)
warn: ignoring syscall access(...)
warn: ignoring syscall access(...)
warn: ignoring syscall access(...)
warn: ignoring syscall access(...)
warn: ignoring syscall access(...)
warn: ignoring syscall access(...)
warn: ignoring syscall access(...)
warn: ignoring syscall access(...)
warn: ignoring syscall access(...)
warn: ignoring syscall access(...)
warn: ignoring syscall access(...)
warn: ignoring syscall access(...)
warn: ignoring syscall access(...)
warn: ignoring syscall access(...)
warn: ignoring syscall access(...)
warn: ignoring syscall access(...)
warn: ignoring syscall access(...)
warn: ignoring syscall access(...)
warn: ignoring syscall access(...)
warn: ignoring syscall access(...)
warn: ignoring syscall access(...)
warn: ignoring syscall access(...)
warn: ignoring syscall access(...)
warn: ignoring syscall access(...)
warn: ignoring syscall access(...)
warn: ignoring syscall access(...)
warn: ignoring syscall access(...)
warn: ignoring syscall access(...)
warn: ignoring syscall access(...)
warn: ignoring syscall access(...)
warn: ignoring syscall access(...)
warn: ignoring syscall access(...)
warn: ignoring syscall access(...)
warn: ignoring syscall access(...)
warn: ignoring syscall access(...)
warn: ignoring syscall access(...)
warn: ignoring syscall access(...)
warn: ignoring syscall access(...)
warn: ignoring syscall access(...)
Warning: Oops! Cannot open options1t!
Warning: Oops! Cannot open options1t!
Warning: Oops! Cannot open options1t!
Warning: Oops! Cannot open options1t!
Warning: Oops! Cannot open options1t!
Error! Oops: Cannot load the input image!
Error! Oops: Cannot load the input image!
Error! Oops: Cannot load the input image!
Warning: Oops! Cannot open options1t!
Error! Oops: Cannot load the input image!
Error! Oops: Cannot load the input image!
Warning: Oops! Cannot open options1t!
Error! Oops: Cannot load the input image!
Warning: Oops! Cannot open options1t!
Error! Oops: Cannot load the input image!
Error! Oops: Cannot load the input image!
Exiting @ tick 66869110500 because target called exit()
Exiting @ tick 66800707500 because target called exit()
Exiting @ tick 66830114500 because target called exit()
Exiting @ tick 66800707500 because target called exit()
Exiting @ tick 66919056500 because target called exit()
Exiting @ tick 66800707500 because target called exit()
Exiting @ tick 66895732500 because target called exit()
Exiting @ tick 66884733500 because target called exit()
