./Common.sh: line 3: /net/bigtemp/ml2au/AxBenchResults/Multiple16: Is a directory

1
--cpu-type=detailed --caches --l2cache  --l1d_size=32kB --l2_size=512kB  --cacheline_size=64 --mem-size=4GB --num-cpus=8
2
--cpu-type=detailed --caches --l2cache  --l1d_size=32kB --l2_size=1MB  --cacheline_size=64  --mem-size=4GB --num-cpus=8
3
--cpu-type=detailed --caches --l2cache  --l1d_size=32kB --l2_size=2MB  --cacheline_size=64  --mem-size=4GB --num-cpus=8
4
--cpu-type=detailed --caches --l2cache  --l1d_size=32kB --l2_size=4MB  --cacheline_size=64  --mem-size=4GB --num-cpus=8
5
--cpu-type=detailed --caches --l2cache  --l1d_size=32kB --l2_size=8MB  --cacheline_size=64  --mem-size=4GB --num-cpus=8
6
--cpu-type=detailed --caches --l2cache  --l1d_size=32kB --l2_size=16MB  --cacheline_size=64  --mem-size=4GB --num-cpus=8
7
--cpu-type=detailed --caches --l2cache  --l1d_size=32kB --l2_size=32MB  --cacheline_size=64  --mem-size=4GB --num-cpus=8
8
--cpu-type=detailed --caches --l2cache  --l1d_size=32kB --l2_size=64MB  --cacheline_size=64  --mem-size=4GB --num-cpus=8
gem5 Simulator System.  http://gem5.org
gem5 is copyrighted software; use the --copyright option for details.

gem5 compiled Jan 16 2017 16:32:23
gem5 started Feb 11 2017 11:13:37
gem5 executing on falcon6, pid 9720
command line: build/X86/gem5.opt -d /bigtemp/ml2au/AxBenchResults/Multiple16/kmeans/NoOutIOC7_1000K configs/example/se.py --cpu-type=detailed --caches --l2cache --l1d_size=32kB --l2_size=32MB --cacheline_size=64 --mem-size=4GB --num-cpus=8 -c '/bigtemp/ml2au/AxBenchResults/binNoOutIO/kmeans;/bigtemp/ml2au/AxBenchResults/binNoOutIO/kmeans;/bigtemp/ml2au/AxBenchResults/binNoOutIO/kmeans;/bigtemp/ml2au/AxBenchResults/binNoOutIO/kmeans;/bigtemp/ml2au/AxBenchResults/binNoOutIO/kmeans;/bigtemp/ml2au/AxBenchResults/binNoOutIO/kmeans;/bigtemp/ml2au/AxBenchResults/binNoOutIO/kmeans;/bigtemp/ml2au/AxBenchResults/binNoOutIO/kmeans' '--options=options1t;/bigtemp/ml2au/AxBench/AxBenchCPU/axbench/applications/kmeans/test.data/input/4.rgb;/bigtemp/ml2au/AxBench/AxBenchCPU/axbench/applications/kmeans/test.data/input/4.rgb;/bigtemp/ml2au/AxBench/AxBenchCPU/axbench/applications/kmeans/test.data/input/4.rgb;/bigtemp/ml2au/AxBench/AxBenchCPU/axbench/applications/kmeans/test.data/input/4.rgb;/bigtemp/ml2au/AxBench/AxBenchCPU/axbench/applications/kmeans/test.data/input/4.rgb;/bigtemp/ml2au/AxBench/AxBenchCPU/axbench/applications/kmeans/test.data/input/4.rgb;/bigtemp/ml2au/AxBench/AxBenchCPU/axbench/applications/kmeans/test.data/input/4.rgb'

Global frequency set at 1000000000000 ticks per second
warn: DRAM device capacity (8192 Mbytes) does not match the address range assigned (4096 Mbytes)
gem5 Simulator System.  http://gem5.org
gem5 is copyrighted software; use the --copyright option for details.

gem5 compiled Jan 16 2017 16:32:23
gem5 started Feb 11 2017 11:13:37
gem5 executing on falcon6, pid 9716
command line: build/X86/gem5.opt -d /bigtemp/ml2au/AxBenchResults/Multiple16/kmeans/NoOutIOC3_1000K configs/example/se.py --cpu-type=detailed --caches --l2cache --l1d_size=32kB --l2_size=2MB --cacheline_size=64 --mem-size=4GB --num-cpus=8 -c '/bigtemp/ml2au/AxBenchResults/binNoOutIO/kmeans;/bigtemp/ml2au/AxBenchResults/binNoOutIO/kmeans;/bigtemp/ml2au/AxBenchResults/binNoOutIO/kmeans;/bigtemp/ml2au/AxBenchResults/binNoOutIO/kmeans;/bigtemp/ml2au/AxBenchResults/binNoOutIO/kmeans;/bigtemp/ml2au/AxBenchResults/binNoOutIO/kmeans;/bigtemp/ml2au/AxBenchResults/binNoOutIO/kmeans;/bigtemp/ml2au/AxBenchResults/binNoOutIO/kmeans' '--options=options1t;/bigtemp/ml2au/AxBench/AxBenchCPU/axbench/applications/kmeans/test.data/input/4.rgb;/bigtemp/ml2au/AxBench/AxBenchCPU/axbench/applications/kmeans/test.data/input/4.rgb;/bigtemp/ml2au/AxBench/AxBenchCPU/axbench/applications/kmeans/test.data/input/4.rgb;/bigtemp/ml2au/AxBench/AxBenchCPU/axbench/applications/kmeans/test.data/input/4.rgb;/bigtemp/ml2au/AxBench/AxBenchCPU/axbench/applications/kmeans/test.data/input/4.rgb;/bigtemp/ml2au/AxBench/AxBenchCPU/axbench/applications/kmeans/test.data/input/4.rgb;/bigtemp/ml2au/AxBench/AxBenchCPU/axbench/applications/kmeans/test.data/input/4.rgb'

Global frequency set at 1000000000000 ticks per second
warn: DRAM device capacity (8192 Mbytes) does not match the address range assigned (4096 Mbytes)
gem5 Simulator System.  http://gem5.org
gem5 is copyrighted software; use the --copyright option for details.

gem5 compiled Jan 16 2017 16:32:23
gem5 started Feb 11 2017 11:13:37
gem5 executing on falcon6, pid 9715
command line: build/X86/gem5.opt -d /bigtemp/ml2au/AxBenchResults/Multiple16/kmeans/NoOutIOC2_1000K configs/example/se.py --cpu-type=detailed --caches --l2cache --l1d_size=32kB --l2_size=1MB --cacheline_size=64 --mem-size=4GB --num-cpus=8 -c '/bigtemp/ml2au/AxBenchResults/binNoOutIO/kmeans;/bigtemp/ml2au/AxBenchResults/binNoOutIO/kmeans;/bigtemp/ml2au/AxBenchResults/binNoOutIO/kmeans;/bigtemp/ml2au/AxBenchResults/binNoOutIO/kmeans;/bigtemp/ml2au/AxBenchResults/binNoOutIO/kmeans;/bigtemp/ml2au/AxBenchResults/binNoOutIO/kmeans;/bigtemp/ml2au/AxBenchResults/binNoOutIO/kmeans;/bigtemp/ml2au/AxBenchResults/binNoOutIO/kmeans' '--options=options1t;/bigtemp/ml2au/AxBench/AxBenchCPU/axbench/applications/kmeans/test.data/input/4.rgb;/bigtemp/ml2au/AxBench/AxBenchCPU/axbench/applications/kmeans/test.data/input/4.rgb;/bigtemp/ml2au/AxBench/AxBenchCPU/axbench/applications/kmeans/test.data/input/4.rgb;/bigtemp/ml2au/AxBench/AxBenchCPU/axbench/applications/kmeans/test.data/input/4.rgb;/bigtemp/ml2au/AxBench/AxBenchCPU/axbench/applications/kmeans/test.data/input/4.rgb;/bigtemp/ml2au/AxBench/AxBenchCPU/axbench/applications/kmeans/test.data/input/4.rgb;/bigtemp/ml2au/AxBench/AxBenchCPU/axbench/applications/kmeans/test.data/input/4.rgb'

Global frequency set at 1000000000000 ticks per second
warn: DRAM device capacity (8192 Mbytes) does not match the address range assigned (4096 Mbytes)
gem5 Simulator System.  http://gem5.org
gem5 is copyrighted software; use the --copyright option for details.

gem5 compiled Jan 16 2017 16:32:23
gem5 started Feb 11 2017 11:13:37
gem5 executing on falcon6, pid 9719
command line: build/X86/gem5.opt -d /bigtemp/ml2au/AxBenchResults/Multiple16/kmeans/NoOutIOC6_1000K configs/example/se.py --cpu-type=detailed --caches --l2cache --l1d_size=32kB --l2_size=16MB --cacheline_size=64 --mem-size=4GB --num-cpus=8 -c '/bigtemp/ml2au/AxBenchResults/binNoOutIO/kmeans;/bigtemp/ml2au/AxBenchResults/binNoOutIO/kmeans;/bigtemp/ml2au/AxBenchResults/binNoOutIO/kmeans;/bigtemp/ml2au/AxBenchResults/binNoOutIO/kmeans;/bigtemp/ml2au/AxBenchResults/binNoOutIO/kmeans;/bigtemp/ml2au/AxBenchResults/binNoOutIO/kmeans;/bigtemp/ml2au/AxBenchResults/binNoOutIO/kmeans;/bigtemp/ml2au/AxBenchResults/binNoOutIO/kmeans' '--options=options1t;/bigtemp/ml2au/AxBench/AxBenchCPU/axbench/applications/kmeans/test.data/input/4.rgb;/bigtemp/ml2au/AxBench/AxBenchCPU/axbench/applications/kmeans/test.data/input/4.rgb;/bigtemp/ml2au/AxBench/AxBenchCPU/axbench/applications/kmeans/test.data/input/4.rgb;/bigtemp/ml2au/AxBench/AxBenchCPU/axbench/applications/kmeans/test.data/input/4.rgb;/bigtemp/ml2au/AxBench/AxBenchCPU/axbench/applications/kmeans/test.data/input/4.rgb;/bigtemp/ml2au/AxBench/AxBenchCPU/axbench/applications/kmeans/test.data/input/4.rgb;/bigtemp/ml2au/AxBench/AxBenchCPU/axbench/applications/kmeans/test.data/input/4.rgb'

Global frequency set at 1000000000000 ticks per second
warn: DRAM device capacity (8192 Mbytes) does not match the address range assigned (4096 Mbytes)
gem5 Simulator System.  http://gem5.org
gem5 is copyrighted software; use the --copyright option for details.

gem5 compiled Jan 16 2017 16:32:23
gem5 started Feb 11 2017 11:13:37
gem5 executing on falcon6, pid 9717
command line: build/X86/gem5.opt -d /bigtemp/ml2au/AxBenchResults/Multiple16/kmeans/NoOutIOC4_1000K configs/example/se.py --cpu-type=detailed --caches --l2cache --l1d_size=32kB --l2_size=4MB --cacheline_size=64 --mem-size=4GB --num-cpus=8 -c '/bigtemp/ml2au/AxBenchResults/binNoOutIO/kmeans;/bigtemp/ml2au/AxBenchResults/binNoOutIO/kmeans;/bigtemp/ml2au/AxBenchResults/binNoOutIO/kmeans;/bigtemp/ml2au/AxBenchResults/binNoOutIO/kmeans;/bigtemp/ml2au/AxBenchResults/binNoOutIO/kmeans;/bigtemp/ml2au/AxBenchResults/binNoOutIO/kmeans;/bigtemp/ml2au/AxBenchResults/binNoOutIO/kmeans;/bigtemp/ml2au/AxBenchResults/binNoOutIO/kmeans' '--options=options1t;/bigtemp/ml2au/AxBench/AxBenchCPU/axbench/applications/kmeans/test.data/input/4.rgb;/bigtemp/ml2au/AxBench/AxBenchCPU/axbench/applications/kmeans/test.data/input/4.rgb;/bigtemp/ml2au/AxBench/AxBenchCPU/axbench/applications/kmeans/test.data/input/4.rgb;/bigtemp/ml2au/AxBench/AxBenchCPU/axbench/applications/kmeans/test.data/input/4.rgb;/bigtemp/ml2au/AxBench/AxBenchCPU/axbench/applications/kmeans/test.data/input/4.rgb;/bigtemp/ml2au/AxBench/AxBenchCPU/axbench/applications/kmeans/test.data/input/4.rgb;/bigtemp/ml2au/AxBench/AxBenchCPU/axbench/applications/kmeans/test.data/input/4.rgb'

Global frequency set at 1000000000000 ticks per second
warn: DRAM device capacity (8192 Mbytes) does not match the address range assigned (4096 Mbytes)
gem5 Simulator System.  http://gem5.org
gem5 is copyrighted software; use the --copyright option for details.

gem5 compiled Jan 16 2017 16:32:23
gem5 started Feb 11 2017 11:13:37
gem5 executing on falcon6, pid 9721
command line: build/X86/gem5.opt -d /bigtemp/ml2au/AxBenchResults/Multiple16/kmeans/NoOutIOC8_1000K configs/example/se.py --cpu-type=detailed --caches --l2cache --l1d_size=32kB --l2_size=64MB --cacheline_size=64 --mem-size=4GB --num-cpus=8 -c '/bigtemp/ml2au/AxBenchResults/binNoOutIO/kmeans;/bigtemp/ml2au/AxBenchResults/binNoOutIO/kmeans;/bigtemp/ml2au/AxBenchResults/binNoOutIO/kmeans;/bigtemp/ml2au/AxBenchResults/binNoOutIO/kmeans;/bigtemp/ml2au/AxBenchResults/binNoOutIO/kmeans;/bigtemp/ml2au/AxBenchResults/binNoOutIO/kmeans;/bigtemp/ml2au/AxBenchResults/binNoOutIO/kmeans;/bigtemp/ml2au/AxBenchResults/binNoOutIO/kmeans' '--options=options1t;/bigtemp/ml2au/AxBench/AxBenchCPU/axbench/applications/kmeans/test.data/input/4.rgb;/bigtemp/ml2au/AxBench/AxBenchCPU/axbench/applications/kmeans/test.data/input/4.rgb;/bigtemp/ml2au/AxBench/AxBenchCPU/axbench/applications/kmeans/test.data/input/4.rgb;/bigtemp/ml2au/AxBench/AxBenchCPU/axbench/applications/kmeans/test.data/input/4.rgb;/bigtemp/ml2au/AxBench/AxBenchCPU/axbench/applications/kmeans/test.data/input/4.rgb;/bigtemp/ml2au/AxBench/AxBenchCPU/axbench/applications/kmeans/test.data/input/4.rgb;/bigtemp/ml2au/AxBench/AxBenchCPU/axbench/applications/kmeans/test.data/input/4.rgb'

Global frequency set at 1000000000000 ticks per second
warn: DRAM device capacity (8192 Mbytes) does not match the address range assigned (4096 Mbytes)
gem5 Simulator System.  http://gem5.org
gem5 is copyrighted software; use the --copyright option for details.

gem5 compiled Jan 16 2017 16:32:23
gem5 started Feb 11 2017 11:13:37
gem5 executing on falcon6, pid 9718
command line: build/X86/gem5.opt -d /bigtemp/ml2au/AxBenchResults/Multiple16/kmeans/NoOutIOC5_1000K configs/example/se.py --cpu-type=detailed --caches --l2cache --l1d_size=32kB --l2_size=8MB --cacheline_size=64 --mem-size=4GB --num-cpus=8 -c '/bigtemp/ml2au/AxBenchResults/binNoOutIO/kmeans;/bigtemp/ml2au/AxBenchResults/binNoOutIO/kmeans;/bigtemp/ml2au/AxBenchResults/binNoOutIO/kmeans;/bigtemp/ml2au/AxBenchResults/binNoOutIO/kmeans;/bigtemp/ml2au/AxBenchResults/binNoOutIO/kmeans;/bigtemp/ml2au/AxBenchResults/binNoOutIO/kmeans;/bigtemp/ml2au/AxBenchResults/binNoOutIO/kmeans;/bigtemp/ml2au/AxBenchResults/binNoOutIO/kmeans' '--options=options1t;/bigtemp/ml2au/AxBench/AxBenchCPU/axbench/applications/kmeans/test.data/input/4.rgb;/bigtemp/ml2au/AxBench/AxBenchCPU/axbench/applications/kmeans/test.data/input/4.rgb;/bigtemp/ml2au/AxBench/AxBenchCPU/axbench/applications/kmeans/test.data/input/4.rgb;/bigtemp/ml2au/AxBench/AxBenchCPU/axbench/applications/kmeans/test.data/input/4.rgb;/bigtemp/ml2au/AxBench/AxBenchCPU/axbench/applications/kmeans/test.data/input/4.rgb;/bigtemp/ml2au/AxBench/AxBenchCPU/axbench/applications/kmeans/test.data/input/4.rgb;/bigtemp/ml2au/AxBench/AxBenchCPU/axbench/applications/kmeans/test.data/input/4.rgb'

Global frequency set at 1000000000000 ticks per second
warn: DRAM device capacity (8192 Mbytes) does not match the address range assigned (4096 Mbytes)
gem5 Simulator System.  http://gem5.org
gem5 is copyrighted software; use the --copyright option for details.

gem5 compiled Jan 16 2017 16:32:23
gem5 started Feb 11 2017 11:13:37
gem5 executing on falcon6, pid 9714
command line: build/X86/gem5.opt -d /bigtemp/ml2au/AxBenchResults/Multiple16/kmeans/NoOutIOC1_1000K configs/example/se.py --cpu-type=detailed --caches --l2cache --l1d_size=32kB --l2_size=512kB --cacheline_size=64 --mem-size=4GB --num-cpus=8 -c '/bigtemp/ml2au/AxBenchResults/binNoOutIO/kmeans;/bigtemp/ml2au/AxBenchResults/binNoOutIO/kmeans;/bigtemp/ml2au/AxBenchResults/binNoOutIO/kmeans;/bigtemp/ml2au/AxBenchResults/binNoOutIO/kmeans;/bigtemp/ml2au/AxBenchResults/binNoOutIO/kmeans;/bigtemp/ml2au/AxBenchResults/binNoOutIO/kmeans;/bigtemp/ml2au/AxBenchResults/binNoOutIO/kmeans;/bigtemp/ml2au/AxBenchResults/binNoOutIO/kmeans' '--options=options1t;/bigtemp/ml2au/AxBench/AxBenchCPU/axbench/applications/kmeans/test.data/input/4.rgb;/bigtemp/ml2au/AxBench/AxBenchCPU/axbench/applications/kmeans/test.data/input/4.rgb;/bigtemp/ml2au/AxBench/AxBenchCPU/axbench/applications/kmeans/test.data/input/4.rgb;/bigtemp/ml2au/AxBench/AxBenchCPU/axbench/applications/kmeans/test.data/input/4.rgb;/bigtemp/ml2au/AxBench/AxBenchCPU/axbench/applications/kmeans/test.data/input/4.rgb;/bigtemp/ml2au/AxBench/AxBenchCPU/axbench/applications/kmeans/test.data/input/4.rgb;/bigtemp/ml2au/AxBench/AxBenchCPU/axbench/applications/kmeans/test.data/input/4.rgb'

Global frequency set at 1000000000000 ticks per second
warn: DRAM device capacity (8192 Mbytes) does not match the address range assigned (4096 Mbytes)
warn: Sockets disabled, not accepting gdb connections
warn: Sockets disabled, not accepting gdb connections
warn: Sockets disabled, not accepting gdb connections
warn: Sockets disabled, not accepting gdb connections
warn: Sockets disabled, not accepting gdb connections
warn: Sockets disabled, not accepting gdb connections
warn: Sockets disabled, not accepting gdb connections
warn: Sockets disabled, not accepting gdb connections
warn: ClockedObject: More than one power state change request encountered within the same simulation tick
warn: ClockedObject: More than one power state change request encountered within the same simulation tick
warn: ClockedObject: More than one power state change request encountered within the same simulation tick
warn: ClockedObject: More than one power state change request encountered within the same simulation tick
warn: ClockedObject: More than one power state change request encountered within the same simulation tick
warn: ClockedObject: More than one power state change request encountered within the same simulation tick
warn: ClockedObject: More than one power state change request encountered within the same simulation tick
warn: ClockedObject: More than one power state change request encountered within the same simulation tick
warn: ClockedObject: More than one power state change request encountered within the same simulation tick
warn: ClockedObject: More than one power state change request encountered within the same simulation tick
warn: ClockedObject: More than one power state change request encountered within the same simulation tick
warn: ClockedObject: More than one power state change request encountered within the same simulation tick
warn: ClockedObject: More than one power state change request encountered within the same simulation tick
warn: ClockedObject: More than one power state change request encountered within the same simulation tick
warn: ClockedObject: More than one power state change request encountered within the same simulation tick
warn: ClockedObject: More than one power state change request encountered within the same simulation tick
warn: ClockedObject: More than one power state change request encountered within the same simulation tick
warn: ClockedObject: More than one power state change request encountered within the same simulation tick
warn: ClockedObject: More than one power state change request encountered within the same simulation tick
warn: ClockedObject: More than one power state change request encountered within the same simulation tick
warn: ClockedObject: More than one power state change request encountered within the same simulation tick
warn: ClockedObject: More than one power state change request encountered within the same simulation tick
warn: ClockedObject: More than one power state change request encountered within the same simulation tick
warn: ClockedObject: More than one power state change request encountered within the same simulation tick
warn: ClockedObject: More than one power state change request encountered within the same simulation tick
warn: ClockedObject: More than one power state change request encountered within the same simulation tick
warn: ClockedObject: More than one power state change request encountered within the same simulation tick
warn: ClockedObject: More than one power state change request encountered within the same simulation tick
warn: ClockedObject: More than one power state change request encountered within the same simulation tick
warn: ClockedObject: More than one power state change request encountered within the same simulation tick
warn: ClockedObject: More than one power state change request encountered within the same simulation tick
warn: ClockedObject: More than one power state change request encountered within the same simulation tick
warn: ClockedObject: More than one power state change request encountered within the same simulation tick
warn: ClockedObject: More than one power state change request encountered within the same simulation tick
warn: ClockedObject: More than one power state change request encountered within the same simulation tick
warn: ClockedObject: More than one power state change request encountered within the same simulation tick
warn: ClockedObject: More than one power state change request encountered within the same simulation tick
warn: ClockedObject: More than one power state change request encountered within the same simulation tick
warn: ClockedObject: More than one power state change request encountered within the same simulation tick
warn: ClockedObject: More than one power state change request encountered within the same simulation tick
warn: ClockedObject: More than one power state change request encountered within the same simulation tick
warn: ClockedObject: More than one power state change request encountered within the same simulation tick
warn: ClockedObject: More than one power state change request encountered within the same simulation tick
warn: ClockedObject: More than one power state change request encountered within the same simulation tick
warn: ClockedObject: More than one power state change request encountered within the same simulation tick
warn: ClockedObject: More than one power state change request encountered within the same simulation tick
warn: ClockedObject: More than one power state change request encountered within the same simulation tick
warn: ClockedObject: More than one power state change request encountered within the same simulation tick
warn: ClockedObject: More than one power state change request encountered within the same simulation tick
warn: ClockedObject: More than one power state change request encountered within the same simulation tick
warn: ClockedObject: More than one power state change request encountered within the same simulation tick
warn: ClockedObject: More than one power state change request encountered within the same simulation tick
warn: ClockedObject: More than one power state change request encountered within the same simulation tick
warn: ClockedObject: More than one power state change request encountered within the same simulation tick
warn: ClockedObject: More than one power state change request encountered within the same simulation tick
warn: ClockedObject: More than one power state change request encountered within the same simulation tick
warn: ClockedObject: More than one power state change request encountered within the same simulation tick
warn: ClockedObject: More than one power state change request encountered within the same simulation tick
warn: ClockedObject: More than one power state change request encountered within the same simulation tick
warn: ClockedObject: More than one power state change request encountered within the same simulation tick
warn: ClockedObject: More than one power state change request encountered within the same simulation tick
warn: ClockedObject: More than one power state change request encountered within the same simulation tick
warn: ClockedObject: More than one power state change request encountered within the same simulation tick
warn: ClockedObject: More than one power state change request encountered within the same simulation tick
**** REAL SIMULATION ****
info: Entering event queue @ 0.  Starting simulation...
**** REAL SIMULATION ****
info: Entering event queue @ 0.  Starting simulation...
**** REAL SIMULATION ****
info: Entering event queue @ 0.  Starting simulation...
**** REAL SIMULATION ****
info: Entering event queue @ 0.  Starting simulation...
**** REAL SIMULATION ****
info: Entering event queue @ 0.  Starting simulation...
**** REAL SIMULATION ****
info: Entering event queue @ 0.  Starting simulation...
**** REAL SIMULATION ****
info: Entering event queue @ 0.  Starting simulation...
**** REAL SIMULATION ****
info: Entering event queue @ 0.  Starting simulation...
warn: x86 cpuid family 0x0000: unimplemented function 7
warn: x86 cpuid family 0x0000: unimplemented function 7
warn: x86 cpuid family 0x0000: unimplemented function 7
warn: x86 cpuid family 0x0000: unimplemented function 7
warn: x86 cpuid family 0x0000: unimplemented function 7
warn: x86 cpuid family 0x0000: unimplemented function 7
warn: x86 cpuid family 0x0000: unimplemented function 7
warn: x86 cpuid family 0x0000: unimplemented function 7
warn: x86 cpuid family 0x0000: unimplemented function 7
warn: x86 cpuid family 0x0000: unimplemented function 7
warn: x86 cpuid family 0x0000: unimplemented function 7
warn: x86 cpuid family 0x0000: unimplemented function 7
warn: x86 cpuid family 0x0000: unimplemented function 7
warn: x86 cpuid family 0x0000: unimplemented function 7
warn: x86 cpuid family 0x0000: unimplemented function 7
warn: x86 cpuid family 0x0000: unimplemented function 7
warn: x86 cpuid family 0x0000: unimplemented function 7
warn: x86 cpuid family 0x0000: unimplemented function 7
warn: x86 cpuid family 0x0000: unimplemented function 7
warn: x86 cpuid family 0x0000: unimplemented function 7
warn: x86 cpuid family 0x0000: unimplemented function 7
warn: x86 cpuid family 0x0000: unimplemented function 7
warn: x86 cpuid family 0x0000: unimplemented function 7
warn: x86 cpuid family 0x0000: unimplemented function 7
warn: x86 cpuid family 0x0000: unimplemented function 7
warn: x86 cpuid family 0x0000: unimplemented function 7
warn: x86 cpuid family 0x0000: unimplemented function 7
warn: x86 cpuid family 0x0000: unimplemented function 7
warn: x86 cpuid family 0x0000: unimplemented function 7
warn: x86 cpuid family 0x0000: unimplemented function 7
warn: x86 cpuid family 0x0000: unimplemented function 7
warn: x86 cpuid family 0x0000: unimplemented function 7
warn: x86 cpuid family 0x0000: unimplemented function 7
warn: x86 cpuid family 0x0000: unimplemented function 7
warn: x86 cpuid family 0x0000: unimplemented function 7
warn: x86 cpuid family 0x0000: unimplemented function 7
warn: x86 cpuid family 0x0000: unimplemented function 7
warn: x86 cpuid family 0x0000: unimplemented function 7
warn: x86 cpuid family 0x0000: unimplemented function 7
warn: x86 cpuid family 0x0000: unimplemented function 7
warn: x86 cpuid family 0x0000: unimplemented function 7
warn: x86 cpuid family 0x0000: unimplemented function 7
warn: x86 cpuid family 0x0000: unimplemented function 7
warn: x86 cpuid family 0x0000: unimplemented function 7
warn: x86 cpuid family 0x0000: unimplemented function 7
warn: x86 cpuid family 0x0000: unimplemented function 7
warn: x86 cpuid family 0x0000: unimplemented function 7
warn: x86 cpuid family 0x0000: unimplemented function 7
warn: x86 cpuid family 0x0000: unimplemented function 7
warn: x86 cpuid family 0x0000: unimplemented function 7
warn: x86 cpuid family 0x0000: unimplemented function 7
warn: x86 cpuid family 0x0000: unimplemented function 7
warn: x86 cpuid family 0x0000: unimplemented function 7
warn: x86 cpuid family 0x0000: unimplemented function 7
warn: x86 cpuid family 0x0000: unimplemented function 7
warn: x86 cpuid family 0x0000: unimplemented function 7
warn: x86 cpuid family 0x0000: unimplemented function 7
warn: x86 cpuid family 0x0000: unimplemented function 7
warn: x86 cpuid family 0x0000: unimplemented function 7
warn: x86 cpuid family 0x0000: unimplemented function 7
warn: x86 cpuid family 0x0000: unimplemented function 7
warn: x86 cpuid family 0x0000: unimplemented function 7
warn: x86 cpuid family 0x0000: unimplemented function 7
warn: x86 cpuid family 0x0000: unimplemented function 7
warn: readlink() called on '/proc/self/exe' may yield unexpected results in various settings.
      Returning '/net/bigtemp/ml2au/AxBenchResults/binNoOutIO/kmeans'
info: Increasing stack size by one page.
info: Increasing stack size by one page.
info: Increasing stack size by one page.
info: Increasing stack size by one page.
warn: readlink() called on '/proc/self/exe' may yield unexpected results in various settings.
      Returning '/net/bigtemp/ml2au/AxBenchResults/binNoOutIO/kmeans'
info: Increasing stack size by one page.
info: Increasing stack size by one page.
info: Increasing stack size by one page.
info: Increasing stack size by one page.
info: Increasing stack size by one page.
info: Increasing stack size by one page.
info: Increasing stack size by one page.
info: Increasing stack size by one page.
info: Increasing stack size by one page.
info: Increasing stack size by one page.
info: Increasing stack size by one page.
info: Increasing stack size by one page.
warn: readlink() called on '/proc/self/exe' may yield unexpected results in various settings.
      Returning '/net/bigtemp/ml2au/AxBenchResults/binNoOutIO/kmeans'
info: Increasing stack size by one page.
info: Increasing stack size by one page.
info: Increasing stack size by one page.
info: Increasing stack size by one page.
info: Increasing stack size by one page.
info: Increasing stack size by one page.
info: Increasing stack size by one page.
info: Increasing stack size by one page.
warn: readlink() called on '/proc/self/exe' may yield unexpected results in various settings.
      Returning '/net/bigtemp/ml2au/AxBenchResults/binNoOutIO/kmeans'
info: Increasing stack size by one page.
info: Increasing stack size by one page.
warn: readlink() called on '/proc/self/exe' may yield unexpected results in various settings.
      Returning '/net/bigtemp/ml2au/AxBenchResults/binNoOutIO/kmeans'
info: Increasing stack size by one page.
info: Increasing stack size by one page.
info: Increasing stack size by one page.
warn: readlink() called on '/proc/self/exe' may yield unexpected results in various settings.
      Returning '/net/bigtemp/ml2au/AxBenchResults/binNoOutIO/kmeans'
info: Increasing stack size by one page.
info: Increasing stack size by one page.
info: Increasing stack size by one page.
info: Increasing stack size by one page.
info: Increasing stack size by one page.
info: Increasing stack size by one page.
info: Increasing stack size by one page.
info: Increasing stack size by one page.
info: Increasing stack size by one page.
info: Increasing stack size by one page.
info: Increasing stack size by one page.
info: Increasing stack size by one page.
info: Increasing stack size by one page.
info: Increasing stack size by one page.
info: Increasing stack size by one page.
info: Increasing stack size by one page.
info: Increasing stack size by one page.
info: Increasing stack size by one page.
info: Increasing stack size by one page.
warn: readlink() called on '/proc/self/exe' may yield unexpected results in various settings.
      Returning '/net/bigtemp/ml2au/AxBenchResults/binNoOutIO/kmeans'
info: Increasing stack size by one page.
info: Increasing stack size by one page.
info: Increasing stack size by one page.
info: Increasing stack size by one page.
info: Increasing stack size by one page.
info: Increasing stack size by one page.
info: Increasing stack size by one page.
info: Increasing stack size by one page.
warn: readlink() called on '/proc/self/exe' may yield unexpected results in various settings.
      Returning '/net/bigtemp/ml2au/AxBenchResults/binNoOutIO/kmeans'
info: Increasing stack size by one page.
info: Increasing stack size by one page.
info: Increasing stack size by one page.
info: Increasing stack size by one page.
info: Increasing stack size by one page.
info: Increasing stack size by one page.
info: Increasing stack size by one page.
info: Increasing stack size by one page.
warn: ignoring syscall access(...)
warn: ignoring syscall access(...)
warn: ignoring syscall access(...)
warn: ignoring syscall access(...)
warn: ignoring syscall access(...)
warn: ignoring syscall access(...)
warn: ignoring syscall access(...)
warn: ignoring syscall access(...)
warn: ignoring syscall access(...)
warn: ignoring syscall access(...)
warn: ignoring syscall access(...)
warn: ignoring syscall access(...)
warn: ignoring syscall access(...)
warn: ignoring syscall access(...)
warn: ignoring syscall access(...)
warn: ignoring syscall access(...)
warn: ignoring syscall access(...)
warn: ignoring syscall access(...)
warn: ignoring syscall access(...)
warn: ignoring syscall access(...)
warn: ignoring syscall access(...)
warn: ignoring syscall access(...)
warn: ignoring syscall access(...)
warn: ignoring syscall access(...)
warn: ignoring syscall access(...)
warn: ignoring syscall access(...)
warn: ignoring syscall access(...)
warn: ignoring syscall access(...)
warn: ignoring syscall access(...)
warn: ignoring syscall access(...)
warn: ignoring syscall access(...)
warn: ignoring syscall access(...)
warn: ignoring syscall access(...)
warn: ignoring syscall access(...)
warn: ignoring syscall access(...)
warn: ignoring syscall access(...)
warn: ignoring syscall access(...)
warn: ignoring syscall access(...)
warn: ignoring syscall access(...)
warn: ignoring syscall access(...)
warn: ignoring syscall access(...)
warn: ignoring syscall access(...)
warn: ignoring syscall access(...)
warn: ignoring syscall access(...)
warn: ignoring syscall access(...)
warn: ignoring syscall access(...)
warn: ignoring syscall access(...)
warn: ignoring syscall access(...)
warn: ignoring syscall access(...)
warn: ignoring syscall access(...)
warn: ignoring syscall access(...)
warn: ignoring syscall access(...)
warn: ignoring syscall access(...)
warn: ignoring syscall access(...)
warn: ignoring syscall access(...)
warn: ignoring syscall access(...)
warn: ignoring syscall access(...)
warn: ignoring syscall access(...)
warn: ignoring syscall access(...)
warn: ignoring syscall access(...)
warn: ignoring syscall access(...)
warn: ignoring syscall access(...)
warn: ignoring syscall access(...)
warn: ignoring syscall access(...)
Warning: Oops! Cannot open options1t!
Warning: Oops! Cannot open options1t!
Warning: Oops! Cannot open options1t!
Warning: Oops! Cannot open options1t!
Warning: Oops! Cannot open options1t!
Warning: Oops! Cannot open options1t!
Warning: Oops! Cannot open options1t!
Warning: Oops! Cannot open options1t!
Exiting @ tick 77716226500 because target called exit()
Exiting @ tick 77316337500 because target called exit()
Exiting @ tick 77564726500 because target called exit()
Exiting @ tick 78025268500 because target called exit()
Exiting @ tick 76968593500 because target called exit()
Exiting @ tick 77032801500 because target called exit()
Exiting @ tick 77490286500 because target called exit()
Exiting @ tick 77671945500 because target called exit()
