Short
1
--cpu-type=detailed --caches --l2cache  --l1d_size=32kB --l2_size=512kB  --cacheline_size=64 --mem-size=4GB
2
--cpu-type=detailed --caches --l2cache  --l1d_size=32kB --l2_size=1MB  --cacheline_size=64  --mem-size=4GB
3
--cpu-type=detailed --caches --l2cache  --l1d_size=32kB --l2_size=2MB  --cacheline_size=64  --mem-size=4GB
4
--cpu-type=detailed --caches --l2cache  --l1d_size=32kB --l2_size=4MB  --cacheline_size=64  --mem-size=4GB
5
--cpu-type=detailed --caches --l2cache  --l1d_size=32kB --l2_size=8MB  --cacheline_size=64  --mem-size=4GB
6
--cpu-type=detailed --caches --l2cache  --l1d_size=32kB --l2_size=16MB  --cacheline_size=64  --mem-size=4GB
7
--cpu-type=detailed --caches --l2cache  --l1d_size=32kB --l2_size=32MB  --cacheline_size=64  --mem-size=4GB
8
--cpu-type=detailed --caches --l2cache  --l1d_size=32kB --l2_size=64MB  --cacheline_size=64  --mem-size=4GB
gem5 Simulator System.  http://gem5.org
gem5 is copyrighted software; use the --copyright option for details.

gem5 compiled Jan 16 2017 16:32:23
gem5 started Feb  3 2017 17:44:39
gem5 executing on falcon2, pid 23860
command line: build/X86/gem5.opt -d /bigtemp/ml2au/AxBenchResults/kmeans/ShortC7_1000K configs/example/se.py --cpu-type=detailed --caches --l2cache --l1d_size=32kB --l2_size=32MB --cacheline_size=64 --mem-size=4GB -c /bigtemp/ml2au/AxBenchResults/srcShort/kmeans --options=/bigtemp/ml2au/AxBench/AxBenchCPU/axbench/applications/kmeans/test.data/input/4.rgb

Global frequency set at 1000000000000 ticks per second
warn: DRAM device capacity (8192 Mbytes) does not match the address range assigned (4096 Mbytes)
gem5 Simulator System.  http://gem5.org
gem5 is copyrighted software; use the --copyright option for details.

gem5 compiled Jan 16 2017 16:32:23
gem5 started Feb  3 2017 17:44:39
gem5 executing on falcon2, pid 23857
command line: build/X86/gem5.opt -d /bigtemp/ml2au/AxBenchResults/kmeans/ShortC4_1000K configs/example/se.py --cpu-type=detailed --caches --l2cache --l1d_size=32kB --l2_size=4MB --cacheline_size=64 --mem-size=4GB -c /bigtemp/ml2au/AxBenchResults/srcShort/kmeans --options=/bigtemp/ml2au/AxBench/AxBenchCPU/axbench/applications/kmeans/test.data/input/4.rgb

Global frequency set at 1000000000000 ticks per second
warn: DRAM device capacity (8192 Mbytes) does not match the address range assigned (4096 Mbytes)
gem5 Simulator System.  http://gem5.org
gem5 is copyrighted software; use the --copyright option for details.

gem5 compiled Jan 16 2017 16:32:23
gem5 started Feb  3 2017 17:44:39
gem5 executing on falcon2, pid 23861
command line: build/X86/gem5.opt -d /bigtemp/ml2au/AxBenchResults/kmeans/ShortC8_1000K configs/example/se.py --cpu-type=detailed --caches --l2cache --l1d_size=32kB --l2_size=64MB --cacheline_size=64 --mem-size=4GB -c /bigtemp/ml2au/AxBenchResults/srcShort/kmeans --options=/bigtemp/ml2au/AxBench/AxBenchCPU/axbench/applications/kmeans/test.data/input/4.rgb

Global frequency set at 1000000000000 ticks per second
warn: DRAM device capacity (8192 Mbytes) does not match the address range assigned (4096 Mbytes)
gem5 Simulator System.  http://gem5.org
gem5 is copyrighted software; use the --copyright option for details.

gem5 compiled Jan 16 2017 16:32:23
gem5 started Feb  3 2017 17:44:39
gem5 executing on falcon2, pid 23856
command line: build/X86/gem5.opt -d /bigtemp/ml2au/AxBenchResults/kmeans/ShortC3_1000K configs/example/se.py --cpu-type=detailed --caches --l2cache --l1d_size=32kB --l2_size=2MB --cacheline_size=64 --mem-size=4GB -c /bigtemp/ml2au/AxBenchResults/srcShort/kmeans --options=/bigtemp/ml2au/AxBench/AxBenchCPU/axbench/applications/kmeans/test.data/input/4.rgb

Global frequency set at 1000000000000 ticks per second
warn: DRAM device capacity (8192 Mbytes) does not match the address range assigned (4096 Mbytes)
warn: Sockets disabled, not accepting gdb connections
gem5 Simulator System.  http://gem5.org
gem5 is copyrighted software; use the --copyright option for details.

gem5 compiled Jan 16 2017 16:32:23
gem5 started Feb  3 2017 17:44:39
gem5 executing on falcon2, pid 23854
command line: build/X86/gem5.opt -d /bigtemp/ml2au/AxBenchResults/kmeans/ShortC1_1000K configs/example/se.py --cpu-type=detailed --caches --l2cache --l1d_size=32kB --l2_size=512kB --cacheline_size=64 --mem-size=4GB -c /bigtemp/ml2au/AxBenchResults/srcShort/kmeans --options=/bigtemp/ml2au/AxBench/AxBenchCPU/axbench/applications/kmeans/test.data/input/4.rgb

Global frequency set at 1000000000000 ticks per second
warn: DRAM device capacity (8192 Mbytes) does not match the address range assigned (4096 Mbytes)
gem5 Simulator System.  http://gem5.org
gem5 is copyrighted software; use the --copyright option for details.

gem5 compiled Jan 16 2017 16:32:23
gem5 started Feb  3 2017 17:44:39
gem5 executing on falcon2, pid 23855
command line: build/X86/gem5.opt -d /bigtemp/ml2au/AxBenchResults/kmeans/ShortC2_1000K configs/example/se.py --cpu-type=detailed --caches --l2cache --l1d_size=32kB --l2_size=1MB --cacheline_size=64 --mem-size=4GB -c /bigtemp/ml2au/AxBenchResults/srcShort/kmeans --options=/bigtemp/ml2au/AxBench/AxBenchCPU/axbench/applications/kmeans/test.data/input/4.rgb

Global frequency set at 1000000000000 ticks per second
warn: DRAM device capacity (8192 Mbytes) does not match the address range assigned (4096 Mbytes)
warn: Sockets disabled, not accepting gdb connections
warn: Sockets disabled, not accepting gdb connections
warn: Sockets disabled, not accepting gdb connections
warn: Sockets disabled, not accepting gdb connections
warn: Sockets disabled, not accepting gdb connections
gem5 Simulator System.  http://gem5.org
gem5 is copyrighted software; use the --copyright option for details.

gem5 compiled Jan 16 2017 16:32:23
gem5 started Feb  3 2017 17:44:39
gem5 executing on falcon2, pid 23859
command line: build/X86/gem5.opt -d /bigtemp/ml2au/AxBenchResults/kmeans/ShortC6_1000K configs/example/se.py --cpu-type=detailed --caches --l2cache --l1d_size=32kB --l2_size=16MB --cacheline_size=64 --mem-size=4GB -c /bigtemp/ml2au/AxBenchResults/srcShort/kmeans --options=/bigtemp/ml2au/AxBench/AxBenchCPU/axbench/applications/kmeans/test.data/input/4.rgb

Global frequency set at 1000000000000 ticks per second
warn: DRAM device capacity (8192 Mbytes) does not match the address range assigned (4096 Mbytes)
warn: ClockedObject: More than one power state change request encountered within the same simulation tick
gem5 Simulator System.  http://gem5.org
gem5 is copyrighted software; use the --copyright option for details.

gem5 compiled Jan 16 2017 16:32:23
gem5 started Feb  3 2017 17:44:39
gem5 executing on falcon2, pid 23858
command line: build/X86/gem5.opt -d /bigtemp/ml2au/AxBenchResults/kmeans/ShortC5_1000K configs/example/se.py --cpu-type=detailed --caches --l2cache --l1d_size=32kB --l2_size=8MB --cacheline_size=64 --mem-size=4GB -c /bigtemp/ml2au/AxBenchResults/srcShort/kmeans --options=/bigtemp/ml2au/AxBench/AxBenchCPU/axbench/applications/kmeans/test.data/input/4.rgb

Global frequency set at 1000000000000 ticks per second
warn: DRAM device capacity (8192 Mbytes) does not match the address range assigned (4096 Mbytes)
**** REAL SIMULATION ****
info: Entering event queue @ 0.  Starting simulation...
warn: ClockedObject: More than one power state change request encountered within the same simulation tick
warn: ClockedObject: More than one power state change request encountered within the same simulation tick
**** REAL SIMULATION ****
info: Entering event queue @ 0.  Starting simulation...
warn: ClockedObject: More than one power state change request encountered within the same simulation tick
warn: Sockets disabled, not accepting gdb connections
**** REAL SIMULATION ****
info: Entering event queue @ 0.  Starting simulation...
warn: Sockets disabled, not accepting gdb connections
**** REAL SIMULATION ****
info: Entering event queue @ 0.  Starting simulation...
warn: ClockedObject: More than one power state change request encountered within the same simulation tick
**** REAL SIMULATION ****
info: Entering event queue @ 0.  Starting simulation...
warn: ClockedObject: More than one power state change request encountered within the same simulation tick
**** REAL SIMULATION ****
info: Entering event queue @ 0.  Starting simulation...
warn: ignoring syscall access(...)
warn: ClockedObject: More than one power state change request encountered within the same simulation tick
warn: ignoring syscall access(...)
warn: ClockedObject: More than one power state change request encountered within the same simulation tick
**** REAL SIMULATION ****
info: Entering event queue @ 0.  Starting simulation...
warn: ignoring syscall access(...)
**** REAL SIMULATION ****
info: Entering event queue @ 0.  Starting simulation...
warn: ignoring syscall access(...)
warn: ignoring syscall access(...)
warn: ignoring syscall access(...)
warn: ignoring syscall access(...)
warn: ignoring syscall access(...)
warn: ignoring syscall access(...)
warn: ignoring syscall access(...)
warn: ignoring syscall access(...)
warn: ignoring syscall access(...)
warn: ignoring syscall access(...)
warn: ignoring syscall access(...)
warn: ignoring syscall access(...)
warn: ignoring syscall access(...)
warn: ignoring syscall access(...)
warn: ignoring syscall access(...)
warn: ignoring syscall access(...)
warn: ignoring syscall access(...)
warn: ignoring syscall access(...)
warn: ignoring syscall access(...)
warn: ignoring syscall mprotect(...)
warn: ignoring syscall access(...)
warn: ignoring syscall access(...)
warn: ignoring syscall mprotect(...)
warn: ignoring syscall mprotect(...)
warn: ignoring syscall mprotect(...)
warn: ignoring syscall mprotect(...)
warn: ignoring syscall mprotect(...)
warn: ignoring syscall mprotect(...)
warn: ignoring syscall mprotect(...)
warn: ignoring syscall access(...)
warn: ignoring syscall access(...)
warn: ignoring syscall access(...)
warn: ignoring syscall access(...)
warn: ignoring syscall access(...)
warn: ignoring syscall access(...)
warn: ignoring syscall mprotect(...)
warn: ignoring syscall access(...)
warn: ignoring syscall access(...)
warn: ignoring syscall mprotect(...)
warn: ignoring syscall mprotect(...)
warn: ignoring syscall mprotect(...)
warn: ignoring syscall access(...)
warn: ignoring syscall mprotect(...)
warn: ignoring syscall mprotect(...)
warn: ignoring syscall access(...)
warn: ignoring syscall access(...)
warn: ignoring syscall access(...)
warn: ignoring syscall mprotect(...)
warn: ignoring syscall access(...)
warn: ignoring syscall mprotect(...)
warn: ignoring syscall access(...)
warn: ignoring syscall mprotect(...)
warn: ignoring syscall access(...)
warn: ignoring syscall mprotect(...)
warn: ignoring syscall mprotect(...)
warn: ignoring syscall access(...)
warn: ignoring syscall mprotect(...)
warn: ignoring syscall mprotect(...)
warn: ignoring syscall mprotect(...)
warn: ignoring syscall mprotect(...)
warn: ignoring syscall mprotect(...)
warn: ignoring syscall access(...)
warn: ignoring syscall access(...)
warn: ignoring syscall access(...)
warn: ignoring syscall access(...)
warn: ignoring syscall access(...)
warn: ignoring syscall access(...)
warn: ignoring syscall access(...)
warn: ignoring syscall access(...)
warn: ignoring syscall mprotect(...)
warn: ignoring syscall mprotect(...)
warn: ignoring syscall mprotect(...)warn
: ignoring syscall mprotect(...)
warn: ignoring syscall mprotect(...)
warn: ignoring syscall mprotect(...)
warn: ignoring syscall mprotect(...)
warn: ignoring syscall mprotect(...)
warn: x86 cpuid family 0x0000: unimplemented function 7
warn: ignoring syscall mprotect(...)
warn: x86 cpuid family 0x0000: unimplemented function 7
warn: x86 cpuid family 0x0000: unimplemented function 7
warn: x86 cpuid family 0x0000: unimplemented function 7
warn: ignoring syscall mprotect(...)
warn: ignoring syscall mprotect(...)
warn: ignoring syscall mprotect(...)
warn: x86 cpuid family 0x0000: unimplemented function 7
warn: x86 cpuid family 0x0000: unimplemented function 7
warn: ignoring syscall mprotect(...)
warn: ignoring syscall mprotect(...)
warn: x86 cpuid family 0x0000: unimplemented function 7
warn: x86 cpuid family 0x0000: unimplemented function 7
warn: ignoring syscall mprotect(...)
warn: ignoring syscall mprotect(...)
warn: ignoring syscall mprotect(...)
warn: ignoring syscall mprotect(...)
warn: ignoring syscall mprotect(...)
warn: ignoring syscall mprotect(...)
warn: ignoring syscall mprotect(...)
warn: ignoring syscall mprotect(...)
warn: ignoring syscall mprotect(...)
warn: ignoring syscall mprotect(...)
warn: ignoring syscall mprotect(...)
warn: ignoring syscall mprotect(...)
warn: ignoring syscall mprotect(...)
warn: ignoring syscall mprotect(...)
warn: ignoring syscall mprotect(...)
warn: ignoring syscall mprotect(...)
warn: ignoring syscall mprotect(...)
warn: ignoring syscall mprotect(...)
warn: ignoring syscall mprotect(...)
warn: ignoring syscall mprotect(...)
warn: ignoring syscall mprotect(...)
warn: ignoring syscall mprotect(...)
warn: ignoring syscall mprotect(...)
warn: ignoring syscall mprotect(...)
warn: ignoring syscall mprotect(...)
warn: ignoring syscall mprotect(...)
warn: ignoring syscall mprotect(...)
warn: ignoring syscall mprotect(...)
warn: ignoring syscall mprotect(...)
warn: ignoring syscall mprotect(...)
warn: ignoring syscall mprotect(...)
warn: ignoring syscall mprotect(...)
warn: ignoring syscall mprotect(...)
warn: ignoring syscall mprotect(...)
warn: ignoring syscall mprotect(...)
warn: ignoring syscall mprotect(...)
warn: ignoring syscall mprotect(...)
warn: ignoring syscall mprotect(...)
warn: ignoring syscall mprotect(...)
warn: ignoring syscall mprotect(...)
warn: ignoring syscall mprotect(...)
warn: ignoring syscall mprotect(...)
Exiting @ tick 86087406500 because target called exit()
Exiting @ tick 86213915500 because target called exit()
Exiting @ tick 86087406500 because target called exit()
Exiting @ tick 86186266500 because target called exit()
Exiting @ tick 86218855500 because target called exit()
Exiting @ tick 86130847500 because target called exit()
Exiting @ tick 86087406500 because target called exit()
Exiting @ tick 86087406500 because target called exit()
